MODEL 1
REMARK VINA RESULT:      -9.1      0.000      0.000
REMARK  IDELALISIB
REMARK  5 active torsions:
REMARK  status: ('A' for Active; 'I' for Inactive)
REMARK    1  A    between atoms: N_3  and  C_17 
REMARK    2  A    between atoms: N_4  and  C_10 
REMARK    3  A    between atoms: N_4  and  C_18 
REMARK    4  A    between atoms: C_10  and  C_11 
REMARK    5  A    between atoms: C_10  and  C_12 
ROOT
ATOM      1  F           0      -0.833   1.366 -15.166  0.00  0.00    -0.204 F 
ATOM      2  O           0      -0.974   1.831 -12.700  0.00  0.00    -0.266 OA
ATOM      3  N           0       0.170   3.634 -11.706  0.00  0.00    -0.261 N 
ATOM      4  N           0       1.577   4.990 -13.065  0.00  0.00    -0.230 NA
ATOM      5  C           0       1.038   4.709 -11.918  0.00  0.00     0.147 A 
ATOM      6  C           0      -0.234   2.809 -12.777  0.00  0.00     0.269 A 
ATOM      7  C           0       0.353   3.141 -14.092  0.00  0.00     0.102 A 
ATOM      8  C           0       1.254   4.203 -14.174  0.00  0.00     0.089 A 
ATOM      9  C           0       0.031   2.388 -15.228  0.00  0.00     0.146 A 
ATOM     10  C           0       1.833   4.506 -15.412  0.00  0.00     0.019 A 
ATOM     11  C           0       0.614   2.701 -16.455  0.00  0.00     0.030 A 
ATOM     12  C           0       1.515   3.758 -16.547  0.00  0.00     0.004 A 
ENDROOT
BRANCH   3  13
ATOM     13  C           0      -0.311   3.289 -10.397  0.00  0.00     0.068 A 
ATOM     14  C           0      -1.608   3.628 -10.031  0.00  0.00     0.018 A 
ATOM     15  C           0      -2.076   3.292  -8.761  0.00  0.00     0.002 A 
ATOM     16  C           0      -1.242   2.621  -7.866  0.00  0.00     0.000 A 
ATOM     17  C           0       0.058   2.285  -8.242  0.00  0.00     0.002 A 
ATOM     18  C           0       0.525   2.620  -9.512  0.00  0.00     0.018 A 
ENDBRANCH   3  13
BRANCH   5  19
ATOM     19  C           0       1.353   5.667 -10.789  0.00  0.00     0.137 C 
BRANCH  19  20
ATOM     20  N           0       2.564   6.355 -11.154  0.00  0.00    -0.353 N 
ATOM     21  H           0       3.392   5.806 -11.361  0.00  0.00     0.162 HD
BRANCH  20  22
ATOM     22  C           0       2.653   7.730 -11.320  0.00  0.00     0.158 A 
ATOM     23  N           0       2.778   8.566 -10.254  0.00  0.00    -0.206 NA
ATOM     24  C           0       2.859   9.897 -10.495  0.00  0.00     0.202 A 
ATOM     25  N           0       2.832  10.546 -11.679  0.00  0.00    -0.203 NA
ATOM     26  C           0       2.707   9.699 -12.729  0.00  0.00     0.184 A 
ATOM     27  N           0       2.651  10.054 -14.052  0.00  0.00    -0.205 NA
ATOM     28  C           0       2.618   8.322 -12.576  0.00  0.00     0.128 A 
ATOM     29  C           0       2.530   8.914 -14.698  0.00  0.00     0.177 A 
ATOM     30  N           0       2.505   7.839 -13.848  0.00  0.00    -0.332 N 
ATOM     31  H           0       2.419   6.868 -14.118  0.00  0.00     0.168 HD
ENDBRANCH  20  22
ENDBRANCH  19  20
BRANCH  19  32
ATOM     32  C           0       0.200   6.644 -10.607  0.00  0.00     0.030 C 
ATOM     33  C           0      -0.239   6.745  -9.153  0.00  0.00     0.003 C 
ENDBRANCH  19  32
ENDBRANCH   5  19
TORSDOF 5
ENDMDL
MODEL 2
REMARK VINA RESULT:      -8.7      2.132      3.739
REMARK  IDELALISIB
REMARK  5 active torsions:
REMARK  status: ('A' for Active; 'I' for Inactive)
REMARK    1  A    between atoms: N_3  and  C_17 
REMARK    2  A    between atoms: N_4  and  C_10 
REMARK    3  A    between atoms: N_4  and  C_18 
REMARK    4  A    between atoms: C_10  and  C_11 
REMARK    5  A    between atoms: C_10  and  C_12 
ROOT
ATOM      1  F           0      -0.825   1.278 -14.649  0.00  0.00    -0.204 F 
ATOM      2  O           0      -1.191   2.422 -12.441  0.00  0.00    -0.266 OA
ATOM      3  N           0      -0.109   4.441 -11.890  0.00  0.00    -0.261 N 
ATOM      4  N           0       1.450   5.366 -13.433  0.00  0.00    -0.230 NA
ATOM      5  C           0       0.798   5.417 -12.312  0.00  0.00     0.147 A 
ATOM      6  C           0      -0.426   3.343 -12.719  0.00  0.00     0.269 A 
ATOM      7  C           0       0.291   3.293 -14.010  0.00  0.00     0.102 A 
ATOM      8  C           0       1.218   4.294 -14.300  0.00  0.00     0.089 A 
ATOM      9  C           0       0.064   2.246 -14.912  0.00  0.00     0.146 A 
ATOM     10  C           0       1.919   4.238 -15.510  0.00  0.00     0.019 A 
ATOM     11  C           0       0.768   2.203 -16.114  0.00  0.00     0.030 A 
ATOM     12  C           0       1.696   3.197 -16.413  0.00  0.00     0.004 A 
ENDROOT
BRANCH   3  13
ATOM     13  C           0      -0.721   4.478 -10.591  0.00  0.00     0.068 A 
ATOM     14  C           0      -0.182   3.722  -9.557  0.00  0.00     0.018 A 
ATOM     15  C           0      -0.776   3.758  -8.295  0.00  0.00     0.002 A 
ATOM     16  C           0      -1.904   4.550  -8.079  0.00  0.00     0.000 A 
ATOM     17  C           0      -2.438   5.304  -9.122  0.00  0.00     0.002 A 
ATOM     18  C           0      -1.844   5.268 -10.384  0.00  0.00     0.018 A 
ENDBRANCH   3  13
BRANCH   5  19
ATOM     19  C           0       1.024   6.659 -11.474  0.00  0.00     0.137 C 
BRANCH  19  20
ATOM     20  N           0       2.047   6.331 -10.515  0.00  0.00    -0.353 N 
ATOM     21  H           0       2.962   6.055 -10.854  0.00  0.00     0.162 HD
BRANCH  20  22
ATOM     22  C           0       1.884   6.445  -9.142  0.00  0.00     0.158 A 
ATOM     23  N           0       0.922   7.244  -8.605  0.00  0.00    -0.206 NA
ATOM     24  C           0       0.824   7.303  -7.255  0.00  0.00     0.202 A 
ATOM     25  N           0       1.566   6.665  -6.324  0.00  0.00    -0.203 NA
ATOM     26  C           0       2.519   5.875  -6.874  0.00  0.00     0.184 A 
ATOM     27  N           0       3.425   5.105  -6.192  0.00  0.00    -0.205 NA
ATOM     28  C           0       2.691   5.753  -8.246  0.00  0.00     0.128 A 
ATOM     29  C           0       4.139   4.520  -7.131  0.00  0.00     0.177 A 
ATOM     30  N           0       3.732   4.882  -8.388  0.00  0.00    -0.332 N 
ATOM     31  H           0       4.134   4.560  -9.260  0.00  0.00     0.168 HD
ENDBRANCH  20  22
ENDBRANCH  19  20
BRANCH  19  32
ATOM     32  C           0       1.459   7.809 -12.371  0.00  0.00     0.030 C 
ATOM     33  C           0       2.765   8.436 -11.902  0.00  0.00     0.003 C 
ENDBRANCH  19  32
ENDBRANCH   5  19
TORSDOF 5
ENDMDL
