MODEL 1
REMARK VINA RESULT:      -7.4      0.000      0.000
REMARK  7 active torsions:
REMARK  status: ('A' for Active; 'I' for Inactive)
REMARK    1  A    between atoms: O1_2  and  C2_3 
REMARK    2  A    between atoms: C10_11  and  C12_13 
REMARK    3  A    between atoms: C12_13  and  O2_14 
REMARK    4  A    between atoms: O2_14  and  C14_16 
REMARK    5  A    between atoms: C14_16  and  C15_17 
REMARK    6  A    between atoms: C15_17  and  C16_19 
REMARK    7  A    between atoms: C17_20  and  C18_21 
ROOT
HETATM    1  C12 UNL     1       1.881   6.573 -11.098  1.00  0.00     0.271 C 
HETATM    2  C13 UNL     1       2.693   7.030 -12.250  1.00  0.00     0.097 C 
HETATM    3  N1  UNL     1       3.319   7.393 -13.159  1.00  0.00    -0.194 NA
ENDROOT
BRANCH   1   4
HETATM    4  C10 UNL     1       1.383   5.147 -11.313  1.00  0.00    -0.014 A 
HETATM    5  C9  UNL     1       1.520   4.201 -10.286  1.00  0.00     0.012 A 
HETATM    6  C8  UNL     1       1.054   2.894 -10.456  1.00  0.00     0.013 A 
HETATM    7  C4  UNL     1       0.438   2.497 -11.651  1.00  0.00    -0.023 A 
HETATM    8  C3  UNL     1      -0.036   1.183 -11.831  1.00  0.00     0.049 A 
HETATM    9  C5  UNL     1       0.288   3.440 -12.690  1.00  0.00    -0.025 A 
HETATM   10  C2  UNL     1      -0.650   0.803 -13.027  1.00  0.00     0.069 A 
HETATM   11  C7  UNL     1      -0.785   1.738 -14.052  1.00  0.00     0.037 A 
HETATM   12  C6  UNL     1      -0.324   3.046 -13.889  1.00  0.00     0.015 A 
HETATM   13  C11 UNL     1       0.756   4.754 -12.507  1.00  0.00     0.023 A 
BRANCH  10  14
HETATM   14  O1  UNL     1      -1.150  -0.437 -13.317  1.00  0.00    -0.356 OA
HETATM   15  C1  UNL     1      -1.840  -1.115 -12.272  1.00  0.00     0.210 C 
ENDBRANCH  10  14
ENDBRANCH   1   4
BRANCH   1  16
HETATM   16  O2  UNL     1       2.649   6.609  -9.875  1.00  0.00    -0.296 OA
BRANCH  16  17
HETATM   17  C14 UNL     1       2.276   7.581  -8.997  1.00  0.00     0.263 C 
HETATM   18  O3  UNL     1       2.440   8.777  -9.183  1.00  0.00    -0.265 OA
BRANCH  17  19
HETATM   19  C15 UNL     1       1.603   6.957  -7.798  1.00  0.00     0.146 C 
BRANCH  19  20
HETATM   20  C16 UNL     1       0.512   7.817  -7.234  1.00  0.00     0.165 A 
HETATM   21  C17 UNL     1      -0.962   7.506  -7.418  1.00  0.00     0.184 A 
HETATM   22  O4  UNL     1      -0.253   7.184  -6.204  1.00  0.00    -0.370 OA
BRANCH  21  23
HETATM   23  C18 UNL     1      -1.419   6.365  -8.290  1.00  0.00    -0.027 A 
HETATM   24  C19 UNL     1      -1.525   5.054  -7.795  1.00  0.00     0.010 A 
HETATM   25  C20 UNL     1      -1.946   3.999  -8.607  1.00  0.00     0.001 A 
HETATM   26  C21 UNL     1      -2.281   4.235  -9.938  1.00  0.00     0.000 A 
HETATM   27  C22 UNL     1      -2.192   5.525 -10.453  1.00  0.00     0.001 A 
HETATM   28  C23 UNL     1      -1.768   6.578  -9.636  1.00  0.00     0.010 A 
ENDBRANCH  21  23
ENDBRANCH  19  20
ENDBRANCH  17  19
ENDBRANCH  16  17
ENDBRANCH   1  16
TORSDOF 7
ENDMDL
MODEL 2
REMARK VINA RESULT:      -7.3      1.323      2.047
REMARK  7 active torsions:
REMARK  status: ('A' for Active; 'I' for Inactive)
REMARK    1  A    between atoms: O1_2  and  C2_3 
REMARK    2  A    between atoms: C10_11  and  C12_13 
REMARK    3  A    between atoms: C12_13  and  O2_14 
REMARK    4  A    between atoms: O2_14  and  C14_16 
REMARK    5  A    between atoms: C14_16  and  C15_17 
REMARK    6  A    between atoms: C15_17  and  C16_19 
REMARK    7  A    between atoms: C17_20  and  C18_21 
ROOT
HETATM    1  C12 UNL     1       1.992   7.531 -12.693  1.00  0.00     0.271 C 
HETATM    2  C13 UNL     1       2.610   8.309 -13.790  1.00  0.00     0.097 C 
HETATM    3  N1  UNL     1       3.085   8.927 -14.653  1.00  0.00    -0.194 NA
ENDROOT
BRANCH   1   4
HETATM    4  C10 UNL     1       1.422   6.214 -13.212  1.00  0.00    -0.014 A 
HETATM    5  C9  UNL     1       1.288   6.011 -14.593  1.00  0.00     0.012 A 
HETATM    6  C8  UNL     1       0.784   4.805 -15.090  1.00  0.00     0.013 A 
HETATM    7  C4  UNL     1       0.404   3.771 -14.223  1.00  0.00    -0.023 A 
HETATM    8  C3  UNL     1      -0.103   2.552 -14.714  1.00  0.00     0.049 A 
HETATM    9  C5  UNL     1       0.539   3.959 -12.832  1.00  0.00    -0.025 A 
HETATM   10  C2  UNL     1      -0.475   1.529 -13.839  1.00  0.00     0.069 A 
HETATM   11  C7  UNL     1      -0.348   1.727 -12.465  1.00  0.00     0.037 A 
HETATM   12  C6  UNL     1       0.156   2.928 -11.962  1.00  0.00     0.015 A 
HETATM   13  C11 UNL     1       1.051   5.174 -12.343  1.00  0.00     0.023 A 
BRANCH  10  14
HETATM   14  O1  UNL     1      -0.976   0.307 -14.194  1.00  0.00    -0.356 OA
HETATM   15  C1  UNL     1      -1.010  -0.695 -13.182  1.00  0.00     0.210 C 
ENDBRANCH  10  14
ENDBRANCH   1   4
BRANCH   1  16
HETATM   16  O2  UNL     1       2.956   7.235 -11.658  1.00  0.00    -0.296 OA
BRANCH  16  17
HETATM   17  C14 UNL     1       2.713   7.841 -10.463  1.00  0.00     0.263 C 
HETATM   18  O3  UNL     1       2.732   9.049 -10.288  1.00  0.00    -0.265 OA
BRANCH  17  19
HETATM   19  C15 UNL     1       2.383   6.801  -9.419  1.00  0.00     0.146 C 
BRANCH  19  20
HETATM   20  C16 UNL     1       1.817   7.399  -8.166  1.00  0.00     0.165 A 
HETATM   21  C17 UNL     1       0.420   7.087  -7.661  1.00  0.00     0.184 A 
HETATM   22  O4  UNL     1       1.596   6.450  -7.118  1.00  0.00    -0.370 OA
BRANCH  21  23
HETATM   23  C18 UNL     1      -0.532   6.241  -8.464  1.00  0.00    -0.027 A 
HETATM   24  C19 UNL     1      -0.636   4.854  -8.264  1.00  0.00     0.010 A 
HETATM   25  C20 UNL     1      -1.518   4.072  -9.013  1.00  0.00     0.001 A 
HETATM   26  C21 UNL     1      -2.327   4.665  -9.978  1.00  0.00     0.000 A 
HETATM   27  C22 UNL     1      -2.251   6.038 -10.192  1.00  0.00     0.001 A 
HETATM   28  C23 UNL     1      -1.364   6.817  -9.442  1.00  0.00     0.010 A 
ENDBRANCH  21  23
ENDBRANCH  19  20
ENDBRANCH  17  19
ENDBRANCH  16  17
ENDBRANCH   1  16
TORSDOF 7
ENDMDL
