MODEL 1
REMARK VINA RESULT:      -8.8      0.000      0.000
REMARK  DUVELISIB
REMARK  4 active torsions:
REMARK  status: ('A' for Active; 'I' for Inactive)
REMARK    1  A    between atoms: N_3  and  C_16 
REMARK    2  A    between atoms: N_4  and  C_9 
REMARK    3  A    between atoms: N_4  and  C_17 
REMARK    4  A    between atoms: C_9  and  C_10 
ROOT
ATOM      1 Cl           0      -0.712   0.877 -14.412  0.00  0.00    -0.082 Cl
ATOM      2  O           0      -0.947   2.486 -12.300  0.00  0.00    -0.267 OA
ATOM      3  N           0      -0.002   4.591 -11.817  0.00  0.00    -0.277 N 
ATOM      4  C           0       0.802   5.649 -12.282  0.00  0.00     0.064 A 
ATOM      5  C           0       1.360   5.618 -13.506  0.00  0.00     0.015 A 
ATOM      6  C           0       1.155   4.487 -14.396  0.00  0.00     0.007 A 
ATOM      7  C           0       0.391   3.403 -13.964  0.00  0.00     0.067 A 
ATOM      8  C           0      -0.233   3.437 -12.617  0.00  0.00     0.265 A 
ATOM      9  C           0       1.731   4.462 -15.672  0.00  0.00     0.000 A 
ATOM     10  C           0       0.201   2.297 -14.803  0.00  0.00     0.062 A 
ATOM     11  C           0       1.541   3.362 -16.508  0.00  0.00     0.001 A 
ATOM     12  C           0       0.778   2.281 -16.073  0.00  0.00     0.012 A 
ENDROOT
BRANCH   3  13
ATOM     13  C           0      -0.648   4.614 -10.528  0.00  0.00     0.067 A 
ATOM     14  C           0      -1.777   5.408 -10.329  0.00  0.00     0.018 A 
ATOM     15  C           0      -2.403   5.432  -9.082  0.00  0.00     0.002 A 
ATOM     16  C           0      -1.898   4.662  -8.034  0.00  0.00     0.000 A 
ATOM     17  C           0      -0.768   3.868  -8.234  0.00  0.00     0.002 A 
ATOM     18  C           0      -0.143   3.844  -9.480  0.00  0.00     0.018 A 
ENDBRANCH   3  13
BRANCH   4  19
ATOM     19  C           0       1.157   6.799 -11.372  0.00  0.00     0.118 C 
ATOM     20  C           0       1.727   7.969 -12.151  0.00  0.00     0.030 C 
BRANCH  19  21
ATOM     21  N           0       2.125   6.326 -10.416  0.00  0.00    -0.354 N 
ATOM     22  H           0       2.931   5.812 -10.754  0.00  0.00     0.162 HD
BRANCH  21  23
ATOM     23  C           0       2.000   6.490  -9.043  0.00  0.00     0.158 A 
ATOM     24  N           0       1.087   7.345  -8.529  0.00  0.00    -0.206 NA
ATOM     25  C           0       1.024   7.452  -7.180  0.00  0.00     0.202 A 
ATOM     26  N           0       1.759   6.812  -6.244  0.00  0.00    -0.203 NA
ATOM     27  C           0       2.663   5.963  -6.790  0.00  0.00     0.184 A 
ATOM     28  N           0       3.550   5.175  -6.102  0.00  0.00    -0.205 NA
ATOM     29  C           0       2.798   5.791  -8.160  0.00  0.00     0.128 A 
ATOM     30  C           0       4.217   4.531  -7.036  0.00  0.00     0.177 A 
ATOM     31  N           0       3.797   4.870  -8.296  0.00  0.00    -0.332 N 
ATOM     32  H           0       4.163   4.503  -9.165  0.00  0.00     0.168 HD
ENDBRANCH  21  23
ENDBRANCH  19  21
ENDBRANCH   4  19
TORSDOF 4
ENDMDL
MODEL 2
REMARK VINA RESULT:      -8.6      3.212      6.571
REMARK  DUVELISIB
REMARK  4 active torsions:
REMARK  status: ('A' for Active; 'I' for Inactive)
REMARK    1  A    between atoms: N_3  and  C_16 
REMARK    2  A    between atoms: N_4  and  C_9 
REMARK    3  A    between atoms: N_4  and  C_17 
REMARK    4  A    between atoms: C_9  and  C_10 
ROOT
ATOM      1 Cl           0       3.068  10.851 -11.164  0.00  0.00    -0.082 Cl
ATOM      2  O           0       2.680   8.673  -9.677  0.00  0.00    -0.267 OA
ATOM      3  N           0       2.008   6.485 -10.243  0.00  0.00    -0.277 N 
ATOM      4  C           0       1.673   5.594 -11.279  0.00  0.00     0.064 A 
ATOM      5  C           0       1.681   5.982 -12.566  0.00  0.00     0.015 A 
ATOM      6  C           0       2.035   7.343 -12.938  0.00  0.00     0.007 A 
ATOM      7  C           0       2.344   8.268 -11.940  0.00  0.00     0.067 A 
ATOM      8  C           0       2.345   7.840 -10.519  0.00  0.00     0.265 A 
ATOM      9  C           0       2.049   7.742 -14.280  0.00  0.00     0.000 A 
ATOM     10  C           0       2.668   9.588 -12.281  0.00  0.00     0.062 A 
ATOM     11  C           0       2.372   9.056 -14.619  0.00  0.00     0.001 A 
ATOM     12  C           0       2.680   9.977 -13.621  0.00  0.00     0.012 A 
ENDROOT
BRANCH   3  13
ATOM     13  C           0       2.051   6.086  -8.858  0.00  0.00     0.067 A 
ATOM     14  C           0       3.188   5.458  -8.348  0.00  0.00     0.018 A 
ATOM     15  C           0       3.230   5.071  -7.008  0.00  0.00     0.002 A 
ATOM     16  C           0       2.134   5.312  -6.178  0.00  0.00     0.000 A 
ATOM     17  C           0       0.998   5.939  -6.689  0.00  0.00     0.002 A 
ATOM     18  C           0       0.956   6.327  -8.028  0.00  0.00     0.018 A 
ENDBRANCH   3  13
BRANCH   4  19
ATOM     19  C           0       1.180   4.203 -10.964  0.00  0.00     0.118 C 
ATOM     20  C           0       2.207   3.151 -11.338  0.00  0.00     0.030 C 
BRANCH  19  21
ATOM     21  N           0      -0.038   3.986 -11.702  0.00  0.00    -0.354 N 
ATOM     22  H           0      -0.801   4.643 -11.583  0.00  0.00     0.162 HD
BRANCH  21  23
ATOM     23  C           0      -0.253   2.898 -12.537  0.00  0.00     0.158 A 
ATOM     24  N           0      -0.540   1.680 -12.027  0.00  0.00    -0.206 NA
ATOM     25  C           0      -0.737   0.666 -12.905  0.00  0.00     0.202 A 
ATOM     26  N           0      -0.688   0.694 -14.254  0.00  0.00    -0.203 NA
ATOM     27  C           0      -0.398   1.927 -14.735  0.00  0.00     0.184 A 
ATOM     28  N           0      -0.279   2.272 -16.057  0.00  0.00    -0.205 NA
ATOM     29  C           0      -0.181   3.022 -13.910  0.00  0.00     0.128 A 
ATOM     30  C           0       0.006   3.557 -16.041  0.00  0.00     0.177 A 
ATOM     31  N           0       0.075   4.054 -14.766  0.00  0.00    -0.332 N 
ATOM     32  H           0       0.280   5.011 -14.511  0.00  0.00     0.168 HD
ENDBRANCH  21  23
ENDBRANCH  19  21
ENDBRANCH   4  19
TORSDOF 4
ENDMDL
