MODEL 1
REMARK VINA RESULT:      -7.2      0.000      0.000
REMARK  7 active torsions:
REMARK  status: ('A' for Active; 'I' for Inactive)
REMARK    1  A    between atoms: C1_1  and  C12_15 
REMARK    2  A    between atoms: C2_2  and  O3_14 
REMARK    3  A    between atoms: C4_4  and  C7_9 
REMARK    4  A    between atoms: C7_9  and  C8_10 
REMARK    5  A    between atoms: C8_10  and  C9_11 
REMARK    6  A    between atoms: C9_11  and  C10_12 
REMARK    7  A    between atoms: C17_20  and  C19_22 
ROOT
HETATM    1  C1  UNL     1       1.525   5.717 -10.699  1.00  0.00     0.037 A 
HETATM    2  C2  UNL     1       1.680   6.765 -11.525  1.00  0.00     0.127 A 
HETATM    3  C3  UNL     1       1.684   6.625 -13.008  1.00  0.00     0.211 A 
HETATM    4  C4  UNL     1       1.519   5.274 -13.587  1.00  0.00    -0.001 A 
HETATM    5  C5  UNL     1       1.356   4.233 -12.762  1.00  0.00     0.066 A 
HETATM    6  C6  UNL     1       1.356   4.360 -11.291  1.00  0.00     0.182 A 
HETATM    7  O1  UNL     1       1.221   3.344 -10.619  1.00  0.00    -0.288 OA
HETATM    8  O2  UNL     1       1.820   7.632 -13.696  1.00  0.00    -0.285 OA
ENDROOT
BRANCH   1   9
HETATM    9  C12 UNL     1       1.500   5.855  -9.184  1.00  0.00     0.056 C 
HETATM   10  C13 UNL     1       2.816   5.431  -8.557  1.00  0.00    -0.014 C 
HETATM   11  C14 UNL     1       2.910   4.746  -7.404  1.00  0.00    -0.087 C 
HETATM   12  C15 UNL     1       1.693   4.363  -6.597  1.00  0.00     0.034 C 
HETATM   13  C18 UNL     1       4.233   4.309  -6.842  1.00  0.00     0.043 C 
HETATM   14  C16 UNL     1       0.428   5.125  -7.003  1.00  0.00     0.014 C 
HETATM   15  C17 UNL     1       0.267   5.149  -8.533  1.00  0.00     0.026 C 
BRANCH  15  16
HETATM   16  C19 UNL     1      -1.074   5.752  -8.955  1.00  0.00    -0.088 C 
HETATM   17  C20 UNL     1      -1.398   7.014  -8.619  1.00  0.00     0.014 C 
HETATM   18  C21 UNL     1      -2.022   4.906  -9.764  1.00  0.00     0.043 C 
ENDBRANCH  15  16
ENDBRANCH   1   9
BRANCH   2  19
HETATM   19  O3  UNL     1       1.844   8.056 -11.045  1.00  0.00    -0.356 OA
HETATM   20  H13 UNL     1       2.672   8.032 -10.517  1.00  0.00     0.218 HD
ENDBRANCH   2  19
BRANCH   4  21
HETATM   21  C7  UNL     1       1.509   5.148 -15.085  1.00  0.00     0.043 C 
BRANCH  21  22
HETATM   22  C8  UNL     1       2.139   3.834 -15.559  1.00  0.00     0.005 C 
BRANCH  22  23
HETATM   23  C9  UNL     1       1.203   3.085 -16.513  1.00  0.00    -0.000 C 
BRANCH  23  24
HETATM   24  C10 UNL     1      -0.264   3.127 -16.081  1.00  0.00    -0.005 C 
HETATM   25  C11 UNL     1      -0.628   2.055 -15.065  1.00  0.00     0.005 C 
ENDBRANCH  23  24
ENDBRANCH  22  23
ENDBRANCH  21  22
ENDBRANCH   4  21
TORSDOF 7
ENDMDL
MODEL 2
REMARK VINA RESULT:      -7.1     14.006     16.225
REMARK  7 active torsions:
REMARK  status: ('A' for Active; 'I' for Inactive)
REMARK    1  A    between atoms: C1_1  and  C12_15 
REMARK    2  A    between atoms: C2_2  and  O3_14 
REMARK    3  A    between atoms: C4_4  and  C7_9 
REMARK    4  A    between atoms: C7_9  and  C8_10 
REMARK    5  A    between atoms: C8_10  and  C9_11 
REMARK    6  A    between atoms: C9_11  and  C10_12 
REMARK    7  A    between atoms: C17_20  and  C19_22 
ROOT
HETATM    1  C1  UNL     1      -5.251  11.030 -23.462  1.00  0.00     0.037 A 
HETATM    2  C2  UNL     1      -4.312  10.777 -22.535  1.00  0.00     0.127 A 
HETATM    3  C3  UNL     1      -2.906  11.249 -22.667  1.00  0.00     0.211 A 
HETATM    4  C4  UNL     1      -2.532  12.018 -23.873  1.00  0.00    -0.001 A 
HETATM    5  C5  UNL     1      -3.471  12.276 -24.791  1.00  0.00     0.066 A 
HETATM    6  C6  UNL     1      -4.867  11.809 -24.673  1.00  0.00     0.182 A 
HETATM    7  O1  UNL     1      -5.649  12.077 -25.578  1.00  0.00    -0.288 OA
HETATM    8  O2  UNL     1      -2.107  10.987 -21.771  1.00  0.00    -0.285 OA
ENDROOT
BRANCH   1   9
HETATM    9  C12 UNL     1      -6.695  10.569 -23.324  1.00  0.00     0.056 C 
HETATM   10  C13 UNL     1      -7.047   9.507 -24.351  1.00  0.00    -0.014 C 
HETATM   11  C14 UNL     1      -8.231   9.443 -24.986  1.00  0.00    -0.087 C 
HETATM   12  C15 UNL     1      -9.347  10.419 -24.701  1.00  0.00     0.034 C 
HETATM   13  C18 UNL     1      -8.522   8.400 -26.026  1.00  0.00     0.043 C 
HETATM   14  C16 UNL     1      -9.147  11.215 -23.408  1.00  0.00     0.014 C 
HETATM   15  C17 UNL     1      -7.710  11.756 -23.312  1.00  0.00     0.026 C 
BRANCH  15  16
HETATM   16  C19 UNL     1      -7.534  12.696 -22.117  1.00  0.00    -0.088 C 
HETATM   17  C20 UNL     1      -6.902  13.875 -22.255  1.00  0.00     0.014 C 
HETATM   18  C21 UNL     1      -8.093  12.276 -20.782  1.00  0.00     0.043 C 
ENDBRANCH  15  16
ENDBRANCH   1   9
BRANCH   2  19
HETATM   19  O3  UNL     1      -4.597  10.057 -21.383  1.00  0.00    -0.356 OA
HETATM   20  H13 UNL     1      -3.792  10.132 -20.827  1.00  0.00     0.218 HD
ENDBRANCH   2  19
BRANCH   4  21
HETATM   21  C7  UNL     1      -1.113  12.502 -23.988  1.00  0.00     0.043 C 
BRANCH  21  22
HETATM   22  C8  UNL     1      -0.843  13.189 -25.331  1.00  0.00     0.005 C 
BRANCH  22  23
HETATM   23  C9  UNL     1       0.538  12.812 -25.876  1.00  0.00    -0.000 C 
BRANCH  23  24
HETATM   24  C10 UNL     1       1.678  13.115 -24.901  1.00  0.00    -0.005 C 
HETATM   25  C11 UNL     1       2.739  12.027 -24.849  1.00  0.00     0.005 C 
ENDBRANCH  23  24
ENDBRANCH  22  23
ENDBRANCH  21  22
ENDBRANCH   4  21
TORSDOF 7
ENDMDL
