MODEL 1
REMARK VINA RESULT:      -6.6      0.000      0.000
REMARK  15 active torsions:
REMARK  status: ('A' for Active; 'I' for Inactive)
REMARK    1  A    between atoms: C2_2  and  C12_14 
REMARK    2  A    between atoms: C3_3  and  C6_7 
REMARK    3  A    between atoms: C4_4  and  O1_6 
REMARK    4  A    between atoms: C6_7  and  C7_8 
REMARK    5  A    between atoms: C8_9  and  C9_10 
REMARK    6  A    between atoms: C9_10  and  C10_11 
REMARK    7  A    between atoms: C10_11  and  C11_12 
REMARK    8  A    between atoms: C11_12  and  C20_23 
REMARK    9  A    between atoms: C13_15  and  C14_16 
REMARK   10  A    between atoms: C14_16  and  C15_17 
REMARK   11  A    between atoms: C14_16  and  O3_22 
REMARK   12  A    between atoms: C15_17  and  C16_18 
REMARK   13  A    between atoms: C16_18  and  C17_19 
REMARK   14  A    between atoms: C17_19  and  C18_20 
REMARK   15  A    between atoms: C20_23  and  O5_25 
ROOT
HETATM    1  C1  UNL     1      -0.904  -0.455 -12.947  1.00  0.00     0.137 C 
HETATM    2  C2  UNL     1      -1.217   1.042 -13.032  1.00  0.00     0.084 C 
HETATM    3  C3  UNL     1      -1.207   1.411 -11.534  1.00  0.00     0.033 C 
HETATM    4  C4  UNL     1      -1.828   0.169 -10.875  1.00  0.00     0.130 C 
HETATM    5  C5  UNL     1      -1.107  -0.997 -11.551  1.00  0.00     0.111 C 
HETATM    6  O2  UNL     1      -0.531  -1.147 -13.891  1.00  0.00    -0.297 OA
ENDROOT
BRANCH   2   7
HETATM    7  C12 UNL     1      -0.276   1.753 -13.970  1.00  0.00    -0.016 C 
HETATM    8  C13 UNL     1      -0.453   2.047 -15.268  1.00  0.00     0.001 C 
BRANCH   8   9
HETATM    9  C14 UNL     1       0.558   2.771 -16.107  1.00  0.00     0.140 C 
BRANCH   9  10
HETATM   10  C15 UNL     1       1.594   3.532 -15.274  1.00  0.00     0.036 C 
BRANCH  10  11
HETATM   11  C16 UNL     1       1.397   5.051 -15.213  1.00  0.00     0.003 C 
BRANCH  11  12
HETATM   12  C17 UNL     1       1.649   5.636 -13.820  1.00  0.00    -0.000 C 
BRANCH  12  13
HETATM   13  C18 UNL     1       0.768   5.005 -12.738  1.00  0.00    -0.005 C 
HETATM   14  C19 UNL     1       1.563   4.379 -11.606  1.00  0.00     0.005 C 
ENDBRANCH  12  13
ENDBRANCH  11  12
ENDBRANCH  10  11
ENDBRANCH   9  10
BRANCH   9  15
HETATM   15  O3  UNL     1      -0.161   3.721 -16.892  1.00  0.00    -0.392 OA
HETATM   16  H31 UNL     1       0.198   4.595 -16.666  1.00  0.00     0.210 HD
ENDBRANCH   9  15
ENDBRANCH   8   9
ENDBRANCH   2   7
BRANCH   3  17
HETATM   17  C6  UNL     1      -1.840   2.755 -11.146  1.00  0.00     0.035 C 
BRANCH  17  18
HETATM   18  C7  UNL     1      -1.785   3.153  -9.701  1.00  0.00    -0.030 C 
HETATM   19  C8  UNL     1      -2.087   4.352  -9.174  1.00  0.00    -0.031 C 
BRANCH  19  20
HETATM   20  C9  UNL     1      -2.500   5.596  -9.908  1.00  0.00     0.027 C 
BRANCH  20  21
HETATM   21  C10 UNL     1      -1.591   6.804  -9.645  1.00  0.00     0.013 C 
BRANCH  21  22
HETATM   22  C11 UNL     1      -0.495   6.584  -8.601  1.00  0.00     0.111 C 
BRANCH  22  23
HETATM   23  C20 UNL     1      -0.667   7.441  -7.370  1.00  0.00     0.258 C 
HETATM   24  O4  UNL     1      -1.064   8.598  -7.367  1.00  0.00    -0.265 OA
BRANCH  23  25
HETATM   25  O5  UNL     1      -0.350   6.718  -6.260  1.00  0.00    -0.326 OA
HETATM   26  C21 UNL     1       0.518   7.392  -5.348  1.00  0.00     0.213 C 
ENDBRANCH  23  25
ENDBRANCH  22  23
ENDBRANCH  21  22
ENDBRANCH  20  21
ENDBRANCH  19  20
ENDBRANCH  17  18
ENDBRANCH   3  17
BRANCH   4  27
HETATM   27  O1  UNL     1      -3.217   0.029 -11.134  1.00  0.00    -0.395 OA
HETATM   28  H6  UNL     1      -3.374   0.112 -12.088  1.00  0.00     0.210 HD
ENDBRANCH   4  27
TORSDOF 15
ENDMDL
MODEL 2
REMARK VINA RESULT:      -6.6      2.746      6.599
REMARK  15 active torsions:
REMARK  status: ('A' for Active; 'I' for Inactive)
REMARK    1  A    between atoms: C2_2  and  C12_14 
REMARK    2  A    between atoms: C3_3  and  C6_7 
REMARK    3  A    between atoms: C4_4  and  O1_6 
REMARK    4  A    between atoms: C6_7  and  C7_8 
REMARK    5  A    between atoms: C8_9  and  C9_10 
REMARK    6  A    between atoms: C9_10  and  C10_11 
REMARK    7  A    between atoms: C10_11  and  C11_12 
REMARK    8  A    between atoms: C11_12  and  C20_23 
REMARK    9  A    between atoms: C13_15  and  C14_16 
REMARK   10  A    between atoms: C14_16  and  C15_17 
REMARK   11  A    between atoms: C14_16  and  O3_22 
REMARK   12  A    between atoms: C15_17  and  C16_18 
REMARK   13  A    between atoms: C16_18  and  C17_19 
REMARK   14  A    between atoms: C17_19  and  C18_20 
REMARK   15  A    between atoms: C20_23  and  O5_25 
ROOT
HETATM    1  C1  UNL     1       1.703   4.465 -14.726  1.00  0.00     0.137 C 
HETATM    2  C2  UNL     1       0.563   3.778 -13.968  1.00  0.00     0.084 C 
HETATM    3  C3  UNL     1       0.479   2.448 -14.745  1.00  0.00     0.033 C 
HETATM    4  C4  UNL     1       0.765   2.881 -16.192  1.00  0.00     0.130 C 
HETATM    5  C5  UNL     1       1.975   3.806 -16.059  1.00  0.00     0.111 C 
HETATM    6  O2  UNL     1       2.332   5.436 -14.315  1.00  0.00    -0.297 OA
ENDROOT
BRANCH   2   7
HETATM    7  C12 UNL     1       0.823   3.746 -12.484  1.00  0.00    -0.016 C 
HETATM    8  C13 UNL     1       1.667   2.957 -11.801  1.00  0.00     0.001 C 
BRANCH   8   9
HETATM    9  C14 UNL     1       1.850   3.019 -10.313  1.00  0.00     0.140 C 
BRANCH   9  10
HETATM   10  C15 UNL     1       1.023   4.127  -9.653  1.00  0.00     0.036 C 
BRANCH  10  11
HETATM   11  C16 UNL     1       0.240   3.703  -8.404  1.00  0.00     0.003 C 
BRANCH  11  12
HETATM   12  C17 UNL     1      -1.247   4.060  -8.475  1.00  0.00    -0.000 C 
BRANCH  12  13
HETATM   13  C18 UNL     1      -1.718   4.382  -9.897  1.00  0.00    -0.005 C 
HETATM   14  C19 UNL     1      -2.558   5.644  -9.979  1.00  0.00     0.005 C 
ENDBRANCH  12  13
ENDBRANCH  11  12
ENDBRANCH  10  11
ENDBRANCH   9  10
BRANCH   9  15
HETATM   15  O3  UNL     1       3.229   3.299 -10.077  1.00  0.00    -0.392 OA
HETATM   16  H31 UNL     1       3.699   3.087 -10.900  1.00  0.00     0.210 HD
ENDBRANCH   9  15
ENDBRANCH   8   9
ENDBRANCH   2   7
BRANCH   3  17
HETATM   17  C6  UNL     1      -0.790   1.606 -14.543  1.00  0.00     0.035 C 
BRANCH  17  18
HETATM   18  C7  UNL     1      -0.644   0.296 -13.827  1.00  0.00    -0.030 C 
HETATM   19  C8  UNL     1      -0.991   0.018 -12.559  1.00  0.00    -0.031 C 
BRANCH  19  20
HETATM   20  C9  UNL     1      -1.561   0.961 -11.539  1.00  0.00     0.027 C 
BRANCH  20  21
HETATM   21  C10 UNL     1      -1.101   0.676 -10.102  1.00  0.00     0.013 C 
BRANCH  21  22
HETATM   22  C11 UNL     1       0.157  -0.185  -9.977  1.00  0.00     0.111 C 
BRANCH  22  23
HETATM   23  C20 UNL     1      -0.026  -1.373  -9.063  1.00  0.00     0.258 C 
HETATM   24  O4  UNL     1      -0.251  -1.311  -7.863  1.00  0.00    -0.265 OA
BRANCH  23  25
HETATM   25  O5  UNL     1       0.060  -2.525  -9.785  1.00  0.00    -0.326 OA
HETATM   26  C21 UNL     1      -1.200  -3.070 -10.174  1.00  0.00     0.213 C 
ENDBRANCH  23  25
ENDBRANCH  22  23
ENDBRANCH  21  22
ENDBRANCH  20  21
ENDBRANCH  19  20
ENDBRANCH  17  18
ENDBRANCH   3  17
BRANCH   4  27
HETATM   27  O1  UNL     1      -0.291   3.630 -16.775  1.00  0.00    -0.395 OA
HETATM   28  H6  UNL     1      -0.832   3.044 -17.327  1.00  0.00     0.210 HD
ENDBRANCH   4  27
TORSDOF 15
ENDMDL
