MODEL 1
REMARK VINA RESULT:      -6.5      0.000      0.000
REMARK  6 active torsions:
REMARK  status: ('A' for Active; 'I' for Inactive)
REMARK    1  A    between atoms: C5_5  and  O1_9 
REMARK    2  A    between atoms: O1_9  and  C7_10 
REMARK    3  A    between atoms: C9_12  and  N1_13 
REMARK    4  A    between atoms: N1_13  and  C10_14 
REMARK    5  A    between atoms: C10_14  and  C11_15 
REMARK    6  A    between atoms: C11_15  and  O2_16 
ROOT
HETATM    1  C7  UNL     1       1.924   7.544 -13.912  1.00  0.00     0.177 A 
HETATM    2  C8  UNL     1       2.892   8.570 -14.436  1.00  0.00     0.046 A 
HETATM    3  C9  UNL     1       2.403   9.991 -14.154  1.00  0.00     0.116 A 
HETATM    4 CL3  UNL     1       1.223   8.482 -13.403  1.00  0.00    -0.145 Cl
HETATM    5  H16 UNL     1       1.520   7.133 -13.409  1.00  0.00     0.145 HD
ENDROOT
BRANCH   1   6
HETATM    6  O1  UNL     1       2.420   6.252 -14.195  1.00  0.00    -0.349 OA
BRANCH   6   7
HETATM    7  C5  UNL     1       1.519   5.210 -14.481  1.00  0.00     0.092 A 
HETATM    8  C4  UNL     1       0.959   4.464 -13.475  1.00  0.00     0.089 A 
HETATM    9  C3  UNL     1       0.070   3.440 -13.788  1.00  0.00     0.058 A 
HETATM   10 CL2  UNL     1       1.340   4.777 -11.799  1.00  0.00    -0.080 Cl
HETATM   11  C2  UNL     1      -0.255   3.163 -15.101  1.00  0.00     0.026 A 
HETATM   12 CL1  UNL     1      -0.621   2.515 -12.479  1.00  0.00    -0.082 Cl
HETATM   13  C1  UNL     1       0.313   3.918 -16.113  1.00  0.00     0.005 A 
HETATM   14  C6  UNL     1       1.196   4.935 -15.795  1.00  0.00     0.038 A 
ENDBRANCH   6   7
ENDBRANCH   1   6
BRANCH   3  15
HETATM   15  N1  UNL     1       2.281  10.118 -12.744  1.00  0.00    -0.419 N 
HETATM   16  H10 UNL     1       2.710   9.350 -12.198  1.00  0.00     0.153 HD
BRANCH  15  17
HETATM   17  C10 UNL     1       2.391  11.393 -12.178  1.00  0.00     0.139 C 
BRANCH  17  18
HETATM   18  C11 UNL     1       3.035  11.510 -10.844  1.00  0.00     0.183 C 
BRANCH  18  19
HETATM   19  O2  UNL     1       4.266  10.856 -10.866  1.00  0.00    -0.399 OA
HETATM   20  H15 UNL     1       4.951  11.349 -10.349  1.00  0.00     0.209 HD
ENDBRANCH  18  19
ENDBRANCH  17  18
ENDBRANCH  15  17
ENDBRANCH   3  15
TORSDOF 6
ENDMDL
MODEL 2
REMARK VINA RESULT:      -6.4      1.497      1.976
REMARK  6 active torsions:
REMARK  status: ('A' for Active; 'I' for Inactive)
REMARK    1  A    between atoms: C5_5  and  O1_9 
REMARK    2  A    between atoms: O1_9  and  C7_10 
REMARK    3  A    between atoms: C9_12  and  N1_13 
REMARK    4  A    between atoms: N1_13  and  C10_14 
REMARK    5  A    between atoms: C10_14  and  C11_15 
REMARK    6  A    between atoms: C11_15  and  O2_16 
ROOT
HETATM    1  C7  UNL     1       1.762   7.623 -14.044  1.00  0.00     0.177 A 
HETATM    2  C8  UNL     1       2.820   8.611 -14.458  1.00  0.00     0.046 A 
HETATM    3  C9  UNL     1       2.403  10.044 -14.125  1.00  0.00     0.116 A 
HETATM    4 CL3  UNL     1       1.092   8.578 -13.522  1.00  0.00    -0.145 Cl
HETATM    5  H16 UNL     1       1.305   7.215 -13.587  1.00  0.00     0.145 HD
ENDROOT
BRANCH   1   6
HETATM    6  O1  UNL     1       2.192   6.319 -14.372  1.00  0.00    -0.349 OA
BRANCH   6   7
HETATM    7  C5  UNL     1       1.478   5.209 -13.884  1.00  0.00     0.092 A 
HETATM    8  C4  UNL     1       0.880   4.322 -14.742  1.00  0.00     0.089 A 
HETATM    9  C3  UNL     1       0.182   3.231 -14.231  1.00  0.00     0.058 A 
HETATM   10 CL2  UNL     1       0.978   4.532 -16.473  1.00  0.00    -0.080 Cl
HETATM   11  C2  UNL     1       0.083   3.032 -12.868  1.00  0.00     0.026 A 
HETATM   12 CL1  UNL     1      -0.565   2.126 -15.356  1.00  0.00    -0.082 Cl
HETATM   13  C1  UNL     1       0.687   3.931 -12.006  1.00  0.00     0.005 A 
HETATM   14  C6  UNL     1       1.381   5.013 -12.521  1.00  0.00     0.038 A 
ENDBRANCH   6   7
ENDBRANCH   1   6
BRANCH   3  15
HETATM   15  N1  UNL     1       2.210  10.106 -12.718  1.00  0.00    -0.419 N 
HETATM   16  H10 UNL     1       2.343   9.208 -12.219  1.00  0.00     0.153 HD
BRANCH  15  17
HETATM   17  C10 UNL     1       2.648  11.245 -12.034  1.00  0.00     0.139 C 
BRANCH  17  18
HETATM   18  C11 UNL     1       3.170  11.072 -10.654  1.00  0.00     0.183 C 
BRANCH  18  19
HETATM   19  O2  UNL     1       4.554  11.235 -10.659  1.00  0.00    -0.399 OA
HETATM   20  H15 UNL     1       4.835  11.959 -11.274  1.00  0.00     0.209 HD
ENDBRANCH  18  19
ENDBRANCH  17  18
ENDBRANCH  15  17
ENDBRANCH   3  15
TORSDOF 6
ENDMDL
