MODEL 1
REMARK VINA RESULT:      -6.8      0.000      0.000
REMARK  14 active torsions:
REMARK  status: ('A' for Active; 'I' for Inactive)
REMARK    1  A    between atoms: C2_2  and  O2_7 
REMARK    2  A    between atoms: C3_3  and  C6_8 
REMARK    3  A    between atoms: C4_4  and  C14_16 
REMARK    4  A    between atoms: C6_8  and  C7_9 
REMARK    5  A    between atoms: C7_9  and  C8_10 
REMARK    6  A    between atoms: C8_10  and  C9_11 
REMARK    7  A    between atoms: C9_11  and  C10_12 
REMARK    8  A    between atoms: C10_12  and  C11_13 
REMARK    9  A    between atoms: C11_13  and  C12_14 
REMARK   10  A    between atoms: C12_14  and  C13_15 
REMARK   11  A    between atoms: C13_15  and  O4_20 
REMARK   12  A    between atoms: C14_16  and  C15_17 
REMARK   13  A    between atoms: C15_17  and  C16_18 
REMARK   14  A    between atoms: C16_18  and  O6_22 
ROOT
HETATM    1  C1  UNL     1      -0.068   3.937 -11.351  1.00  0.00     0.110 C 
HETATM    2  C2  UNL     1       0.586   2.855 -12.200  1.00  0.00     0.130 C 
HETATM    3  C3  UNL     1      -0.546   2.210 -13.021  1.00  0.00     0.026 C 
HETATM    4  C4  UNL     1      -1.763   2.211 -12.063  1.00  0.00     0.062 C 
HETATM    5  C5  UNL     1      -1.482   3.438 -11.223  1.00  0.00     0.134 C 
HETATM    6  O1  UNL     1      -2.336   3.994 -10.538  1.00  0.00    -0.297 OA
ENDROOT
BRANCH   3   7
HETATM    7  C6  UNL     1      -0.804   3.012 -14.313  1.00  0.00     0.015 C 
BRANCH   7   8
HETATM    8  C7  UNL     1       0.001   2.493 -15.507  1.00  0.00     0.079 C 
BRANCH   8   9
HETATM    9  C8  UNL     1       0.862   3.580 -16.132  1.00  0.00     0.127 C 
HETATM   10  O3  UNL     1       1.647   3.350 -17.052  1.00  0.00    -0.298 OA
BRANCH   9  11
HETATM   11  C9  UNL     1       0.712   4.984 -15.579  1.00  0.00     0.078 C 
BRANCH  11  12
HETATM   12  C10 UNL     1       1.822   5.372 -14.609  1.00  0.00     0.008 C 
BRANCH  12  13
HETATM   13  C11 UNL     1       1.517   6.581 -13.719  1.00  0.00     0.011 C 
BRANCH  13  14
HETATM   14  C12 UNL     1       2.765   7.250 -13.149  1.00  0.00     0.110 C 
BRANCH  14  15
HETATM   15  C13 UNL     1       3.031   8.586 -13.788  1.00  0.00     0.139 C 
HETATM   16  O5  UNL     1       2.219   9.484 -13.929  1.00  0.00    -0.650 OA
BRANCH  15  17
HETATM   17  O4  UNL     1       4.307   8.750 -14.180  1.00  0.00    -0.776 OA
HETATM   18  H23 UNL     1       4.551   7.883 -14.567  1.00  0.00     0.167 HD
ENDBRANCH  15  17
ENDBRANCH  14  15
ENDBRANCH  13  14
ENDBRANCH  12  13
ENDBRANCH  11  12
ENDBRANCH   9  11
ENDBRANCH   8   9
ENDBRANCH   7   8
ENDBRANCH   3   7
BRANCH   2  19
HETATM   19  O2  UNL     1       1.176   1.860 -11.372  1.00  0.00    -0.395 OA
HETATM   20  H12 UNL     1       2.132   2.038 -11.312  1.00  0.00     0.210 HD
ENDBRANCH   2  19
BRANCH   4  21
HETATM   21  C14 UNL     1      -1.864   0.925 -11.229  1.00  0.00     0.023 C 
BRANCH  21  22
HETATM   22  C15 UNL     1      -2.073  -0.343 -12.065  1.00  0.00     0.111 C 
BRANCH  22  23
HETATM   23  C16 UNL     1      -0.782  -0.919 -12.593  1.00  0.00     0.139 C 
HETATM   24  O7  UNL     1       0.260  -1.077 -11.980  1.00  0.00    -0.650 OA
BRANCH  23  25
HETATM   25  O6  UNL     1      -0.866  -1.225 -13.902  1.00  0.00    -0.776 OA
HETATM   26  H24 UNL     1      -1.800  -1.497 -14.016  1.00  0.00     0.167 HD
ENDBRANCH  23  25
ENDBRANCH  22  23
ENDBRANCH  21  22
ENDBRANCH   4  21
TORSDOF 14
ENDMDL
MODEL 2
REMARK VINA RESULT:      -6.5      1.732      4.190
REMARK  14 active torsions:
REMARK  status: ('A' for Active; 'I' for Inactive)
REMARK    1  A    between atoms: C2_2  and  O2_7 
REMARK    2  A    between atoms: C3_3  and  C6_8 
REMARK    3  A    between atoms: C4_4  and  C14_16 
REMARK    4  A    between atoms: C6_8  and  C7_9 
REMARK    5  A    between atoms: C7_9  and  C8_10 
REMARK    6  A    between atoms: C8_10  and  C9_11 
REMARK    7  A    between atoms: C9_11  and  C10_12 
REMARK    8  A    between atoms: C10_12  and  C11_13 
REMARK    9  A    between atoms: C11_13  and  C12_14 
REMARK   10  A    between atoms: C12_14  and  C13_15 
REMARK   11  A    between atoms: C13_15  and  O4_20 
REMARK   12  A    between atoms: C14_16  and  C15_17 
REMARK   13  A    between atoms: C15_17  and  C16_18 
REMARK   14  A    between atoms: C16_18  and  O6_22 
ROOT
HETATM    1  C1  UNL     1       1.273   3.632  -8.618  1.00  0.00     0.110 C 
HETATM    2  C2  UNL     1       2.384   3.827  -9.643  1.00  0.00     0.130 C 
HETATM    3  C3  UNL     1       1.692   4.253 -10.952  1.00  0.00     0.026 C 
HETATM    4  C4  UNL     1       0.370   3.447 -10.966  1.00  0.00     0.062 C 
HETATM    5  C5  UNL     1       0.087   3.308  -9.485  1.00  0.00     0.134 C 
HETATM    6  O1  UNL     1      -1.015   3.003  -9.037  1.00  0.00    -0.297 OA
ENDROOT
BRANCH   3   7
HETATM    7  C6  UNL     1       1.460   5.777 -10.971  1.00  0.00     0.015 C 
BRANCH   7   8
HETATM    8  C7  UNL     1       2.695   6.562 -11.423  1.00  0.00     0.079 C 
BRANCH   8   9
HETATM    9  C8  UNL     1       2.588   7.015 -12.870  1.00  0.00     0.127 C 
HETATM   10  O3  UNL     1       3.525   7.547 -13.465  1.00  0.00    -0.298 OA
BRANCH   9  11
HETATM   11  C9  UNL     1       1.264   6.778 -13.573  1.00  0.00     0.078 C 
BRANCH  11  12
HETATM   12  C10 UNL     1       1.389   5.905 -14.816  1.00  0.00     0.008 C 
BRANCH  12  13
HETATM   13  C11 UNL     1       1.690   4.427 -14.546  1.00  0.00     0.011 C 
BRANCH  13  14
HETATM   14  C12 UNL     1       2.086   3.646 -15.798  1.00  0.00     0.110 C 
BRANCH  14  15
HETATM   15  C13 UNL     1       0.934   2.859 -16.360  1.00  0.00     0.139 C 
HETATM   16  O5  UNL     1       0.740   1.666 -16.202  1.00  0.00    -0.650 OA
BRANCH  15  17
HETATM   17  O4  UNL     1       0.060   3.608 -17.055  1.00  0.00    -0.776 OA
HETATM   18  H23 UNL     1      -0.250   4.276 -16.407  1.00  0.00     0.167 HD
ENDBRANCH  15  17
ENDBRANCH  14  15
ENDBRANCH  13  14
ENDBRANCH  12  13
ENDBRANCH  11  12
ENDBRANCH   9  11
ENDBRANCH   8   9
ENDBRANCH   7   8
ENDBRANCH   3   7
BRANCH   2  19
HETATM   19  O2  UNL     1       3.076   2.604  -9.867  1.00  0.00    -0.395 OA
HETATM   20  H12 UNL     1       3.140   2.460 -10.828  1.00  0.00     0.210 HD
ENDBRANCH   2  19
BRANCH   4  21
HETATM   21  C14 UNL     1       0.507   2.092 -11.678  1.00  0.00     0.023 C 
BRANCH  21  22
HETATM   22  C15 UNL     1      -0.444   1.914 -12.866  1.00  0.00     0.111 C 
BRANCH  22  23
HETATM   23  C16 UNL     1      -0.885   0.484 -13.057  1.00  0.00     0.139 C 
HETATM   24  O7  UNL     1      -1.465  -0.223 -12.250  1.00  0.00    -0.650 OA
BRANCH  23  25
HETATM   25  O6  UNL     1      -0.521   0.002 -14.261  1.00  0.00    -0.776 OA
HETATM   26  H24 UNL     1      -1.280   0.228 -14.839  1.00  0.00     0.167 HD
ENDBRANCH  23  25
ENDBRANCH  22  23
ENDBRANCH  21  22
ENDBRANCH   4  21
TORSDOF 14
ENDMDL
