MODEL 1
REMARK VINA RESULT:      -6.9      0.000      0.000
REMARK  7 active torsions:
REMARK  status: ('A' for Active; 'I' for Inactive)
REMARK    1  A    between atoms: C1_1  and  O4_22 
REMARK    2  A    between atoms: C2_2  and  O2_9 
REMARK    3  A    between atoms: C3_3  and  O1_7 
REMARK    4  A    between atoms: C9_11  and  N1_12 
REMARK    5  A    between atoms: N1_12  and  C10_13 
REMARK    6  A    between atoms: C10_13  and  C11_14 
REMARK    7  A    between atoms: C12_15  and  O3_20 
ROOT
HETATM    1  C1  UNL     1      -0.394  -1.559  -7.493  1.00  0.00     0.104 A 
HETATM    2  C2  UNL     1       0.353  -0.733  -6.646  1.00  0.00     0.135 A 
HETATM    3  C3  UNL     1       1.140   0.283  -7.138  1.00  0.00     0.104 A 
HETATM    4  C4  UNL     1       1.180   0.478  -8.502  1.00  0.00     0.047 A 
HETATM    5  C5  UNL     1       0.460  -0.310  -9.392  1.00  0.00    -0.051 A 
HETATM    6  C6  UNL     1      -0.316  -1.320  -8.847  1.00  0.00     0.047 A 
HETATM    7  C8  UNL     1       0.518  -0.083 -10.841  1.00  0.00     0.068 A 
HETATM    8  C9  UNL     1      -0.539   0.888 -11.321  1.00  0.00     0.274 A 
HETATM    9 CL1  UNL     1      -0.388   0.467 -10.285  1.00  0.00    -0.145 Cl
HETATM   10  H26 UNL     1      -0.613   1.061 -11.506  1.00  0.00     0.145 HD
ENDROOT
BRANCH   3  11
HETATM   11  O1  UNL     1       1.890   1.115  -6.318  1.00  0.00    -0.353 OA
HETATM   12  C7  UNL     1       1.762   2.518  -6.405  1.00  0.00     0.210 C 
ENDBRANCH   3  11
BRANCH   1  13
HETATM   13  O4  UNL     1      -1.181  -2.578  -6.982  1.00  0.00    -0.353 OA
HETATM   14  C18 UNL     1      -1.016  -3.871  -7.529  1.00  0.00     0.210 C 
ENDBRANCH   1  13
BRANCH   8  15
HETATM   15  N1  UNL     1      -0.438   1.073 -12.740  1.00  0.00     0.087 N 
HETATM   16  H10 UNL     1       0.504   0.879 -13.120  1.00  0.00     0.316 HD
BRANCH  15  17
HETATM   17  C10 UNL     1      -0.938   2.383 -13.063  1.00  0.00     0.310 C 
BRANCH  17  18
HETATM   18  C11 UNL     1      -0.181   3.021 -14.167  1.00  0.00     0.003 A 
HETATM   19  C12 UNL     1       1.043   3.587 -13.877  1.00  0.00     0.076 A 
HETATM   20  C13 UNL     1       1.801   4.204 -14.880  1.00  0.00     0.037 A 
HETATM   21  C14 UNL     1       1.327   4.251 -16.174  1.00  0.00     0.003 A 
HETATM   22  C15 UNL     1       0.102   3.684 -16.462  1.00  0.00     0.001 A 
HETATM   23  C16 UNL     1      -0.641   3.077 -15.466  1.00  0.00     0.012 A 
BRANCH  19  24
HETATM   24  O3  UNL     1       1.516   3.536 -12.573  1.00  0.00    -0.355 OA
HETATM   25  C17 UNL     1       1.694   4.743 -11.856  1.00  0.00     0.210 C 
ENDBRANCH  19  24
ENDBRANCH  17  18
ENDBRANCH  15  17
ENDBRANCH   8  15
BRANCH   2  26
HETATM   26  O2  UNL     1       0.308  -0.936  -5.272  1.00  0.00    -0.351 OA
HETATM   27  C19 UNL     1       1.221  -1.773  -4.598  1.00  0.00     0.210 C 
ENDBRANCH   2  26
TORSDOF 7
ENDMDL
MODEL 2
REMARK VINA RESULT:      -6.8      1.352      1.906
REMARK  7 active torsions:
REMARK  status: ('A' for Active; 'I' for Inactive)
REMARK    1  A    between atoms: C1_1  and  O4_22 
REMARK    2  A    between atoms: C2_2  and  O2_9 
REMARK    3  A    between atoms: C3_3  and  O1_7 
REMARK    4  A    between atoms: C9_11  and  N1_12 
REMARK    5  A    between atoms: N1_12  and  C10_13 
REMARK    6  A    between atoms: C10_13  and  C11_14 
REMARK    7  A    between atoms: C12_15  and  O3_20 
ROOT
HETATM    1  C1  UNL     1      -0.269  -2.450  -9.088  1.00  0.00     0.104 A 
HETATM    2  C2  UNL     1      -0.364  -2.156  -7.723  1.00  0.00     0.135 A 
HETATM    3  C3  UNL     1      -0.050  -0.911  -7.228  1.00  0.00     0.104 A 
HETATM    4  C4  UNL     1       0.366   0.060  -8.115  1.00  0.00     0.047 A 
HETATM    5  C5  UNL     1       0.479  -0.173  -9.480  1.00  0.00    -0.051 A 
HETATM    6  C6  UNL     1       0.152  -1.443  -9.928  1.00  0.00     0.047 A 
HETATM    7  C8  UNL     1       0.923   0.876 -10.405  1.00  0.00     0.068 A 
HETATM    8  C9  UNL     1      -0.225   1.697 -10.951  1.00  0.00     0.274 A 
HETATM    9 CL1  UNL     1      -0.264   0.785 -10.286  1.00  0.00    -0.145 Cl
HETATM   10  H26 UNL     1      -0.304   1.926 -11.056  1.00  0.00     0.145 HD
ENDROOT
BRANCH   3  11
HETATM   11  O1  UNL     1      -0.137  -0.596  -5.880  1.00  0.00    -0.353 OA
HETATM   12  C7  UNL     1       1.006  -0.647  -5.053  1.00  0.00     0.210 C 
ENDBRANCH   3  11
BRANCH   1  13
HETATM   13  O4  UNL     1      -0.588  -3.709  -9.570  1.00  0.00    -0.353 OA
HETATM   14  C18 UNL     1      -1.856  -3.878 -10.172  1.00  0.00     0.210 C 
ENDBRANCH   1  13
BRANCH   8  15
HETATM   15  N1  UNL     1       0.263   2.705 -11.847  1.00  0.00     0.087 N 
HETATM   16  H10 UNL     1       0.454   3.612 -11.390  1.00  0.00     0.316 HD
BRANCH  15  17
HETATM   17  C10 UNL     1      -0.640   2.794 -12.964  1.00  0.00     0.310 C 
BRANCH  17  18
HETATM   18  C11 UNL     1       0.048   3.189 -14.217  1.00  0.00     0.003 A 
HETATM   19  C12 UNL     1       0.704   4.403 -14.247  1.00  0.00     0.076 A 
HETATM   20  C13 UNL     1       1.369   4.827 -15.403  1.00  0.00     0.037 A 
HETATM   21  C14 UNL     1       1.375   4.031 -16.529  1.00  0.00     0.003 A 
HETATM   22  C15 UNL     1       0.719   2.817 -16.497  1.00  0.00     0.001 A 
HETATM   23  C16 UNL     1       0.063   2.405 -15.352  1.00  0.00     0.012 A 
BRANCH  19  24
HETATM   24  O3  UNL     1       0.695   5.200 -13.111  1.00  0.00    -0.355 OA
HETATM   25  C17 UNL     1       1.768   6.095 -12.889  1.00  0.00     0.210 C 
ENDBRANCH  19  24
ENDBRANCH  17  18
ENDBRANCH  15  17
ENDBRANCH   8  15
BRANCH   2  26
HETATM   26  O2  UNL     1      -0.784  -3.140  -6.836  1.00  0.00    -0.351 OA
HETATM   27  C19 UNL     1      -2.134  -3.301  -6.463  1.00  0.00     0.210 C 
ENDBRANCH   2  26
TORSDOF 7
ENDMDL
