MODEL 1
REMARK VINA RESULT:      -7.4      0.000      0.000
REMARK  4 active torsions:
REMARK  status: ('A' for Active; 'I' for Inactive)
REMARK    1  A    between atoms: C2_3  and  N2_13 
REMARK    2  A    between atoms: C4_5  and  C6_8 
REMARK    3  A    between atoms: C6_8  and  O2_10 
REMARK    4  A    between atoms: C9_14  and  N3_15 
ROOT
HETATM    1  N1  UNL     1      -0.388  -1.149 -11.261  1.00  0.00    -0.219 NA
HETATM    2  C1  UNL     1      -0.241   0.061 -10.434  1.00  0.00     0.163 C 
HETATM    3  C2  UNL     1      -0.034   0.878 -11.742  1.00  0.00     0.223 C 
HETATM    4  C3  UNL     1      -0.450  -0.460 -12.441  1.00  0.00     0.229 C 
HETATM    5  C4  UNL     1      -1.445  -2.083 -10.890  1.00  0.00     0.182 C 
HETATM    6  C5  UNL     1      -2.597  -1.270 -10.264  1.00  0.00     0.029 C 
HETATM    7  S1  UNL     1      -1.825   0.233  -9.515  1.00  0.00    -0.134 SA
HETATM    8  C7  UNL     1      -3.377  -2.007  -9.167  1.00  0.00     0.029 C 
HETATM    9  C8  UNL     1      -3.596  -0.801 -11.334  1.00  0.00     0.029 C 
HETATM   10  O3  UNL     1      -0.790  -0.853 -13.534  1.00  0.00    -0.277 OA
ENDROOT
BRANCH   3  11
HETATM   11  N2  UNL     1      -0.958   2.010 -11.887  1.00  0.00    -0.268 NA
HETATM   12  C9  UNL     1      -0.792   2.772 -12.912  1.00  0.00     0.199 C 
BRANCH  12  13
HETATM   13  N3  UNL     1       0.190   2.806 -13.876  1.00  0.00    -0.376 N 
HETATM   14  C10 UNL     1       1.284   3.768 -13.770  1.00  0.00     0.123 C 
HETATM   15  C11 UNL     1       1.015   5.064 -14.531  1.00  0.00     0.020 C 
HETATM   16  C12 UNL     1       0.595   4.917 -15.993  1.00  0.00     0.002 C 
HETATM   17  C13 UNL     1       1.263   3.772 -16.751  1.00  0.00     0.002 C 
HETATM   18  C14 UNL     1       0.988   2.357 -16.224  1.00  0.00     0.020 C 
HETATM   19  C15 UNL     1      -0.133   2.242 -15.195  1.00  0.00     0.123 C 
ENDBRANCH  12  13
ENDBRANCH   3  11
BRANCH   5  20
HETATM   20  C6  UNL     1      -0.827  -3.116  -9.951  1.00  0.00     0.160 C 
HETATM   21  O1  UNL     1      -0.090  -2.914  -8.998  1.00  0.00    -0.649 OA
BRANCH  20  22
HETATM   22  O2  UNL     1      -1.194  -4.380 -10.256  1.00  0.00    -0.775 OA
HETATM   23  H4  UNL     1      -0.482  -4.695 -10.852  1.00  0.00     0.167 HD
ENDBRANCH  20  22
ENDBRANCH   5  20
TORSDOF 4
ENDMDL
MODEL 2
REMARK VINA RESULT:      -7.0      5.565      7.261
REMARK  4 active torsions:
REMARK  status: ('A' for Active; 'I' for Inactive)
REMARK    1  A    between atoms: C2_3  and  N2_13 
REMARK    2  A    between atoms: C4_5  and  C6_8 
REMARK    3  A    between atoms: C6_8  and  O2_10 
REMARK    4  A    between atoms: C9_14  and  N3_15 
ROOT
HETATM    1  N1  UNL     1       1.399   6.694  -9.756  1.00  0.00    -0.219 NA
HETATM    2  C1  UNL     1       0.368   5.661  -9.562  1.00  0.00     0.163 C 
HETATM    3  C2  UNL     1       0.655   5.161 -11.007  1.00  0.00     0.223 C 
HETATM    4  C3  UNL     1       1.859   6.160 -10.929  1.00  0.00     0.229 C 
HETATM    5  C4  UNL     1       2.310   6.941  -8.645  1.00  0.00     0.182 C 
HETATM    6  C5  UNL     1       2.491   5.615  -7.877  1.00  0.00     0.029 C 
HETATM    7  S1  UNL     1       0.937   4.649  -8.136  1.00  0.00    -0.134 SA
HETATM    8  C7  UNL     1       2.712   5.776  -6.367  1.00  0.00     0.029 C 
HETATM    9  C8  UNL     1       3.657   4.792  -8.451  1.00  0.00     0.029 C 
HETATM   10  O3  UNL     1       2.878   6.412 -11.531  1.00  0.00    -0.277 OA
ENDROOT
BRANCH   3  11
HETATM   11  N2  UNL     1       0.990   3.734 -11.085  1.00  0.00    -0.268 NA
HETATM   12  C9  UNL     1       1.013   3.202 -12.258  1.00  0.00     0.199 C 
BRANCH  12  13
HETATM   13  N3  UNL     1       0.660   3.697 -13.492  1.00  0.00    -0.376 N 
HETATM   14  C10 UNL     1      -0.518   3.174 -14.179  1.00  0.00     0.123 C 
HETATM   15  C11 UNL     1      -0.190   2.038 -15.145  1.00  0.00     0.020 C 
HETATM   16  C12 UNL     1       0.922   2.307 -16.158  1.00  0.00     0.002 C 
HETATM   17  C13 UNL     1       0.982   3.736 -16.693  1.00  0.00     0.002 C 
HETATM   18  C14 UNL     1       1.254   4.838 -15.659  1.00  0.00     0.020 C 
HETATM   19  C15 UNL     1       1.709   4.356 -14.284  1.00  0.00     0.123 C 
ENDBRANCH  12  13
ENDBRANCH   3  11
BRANCH   5  20
HETATM   20  C6  UNL     1       1.709   8.069  -7.810  1.00  0.00     0.160 C 
HETATM   21  O1  UNL     1       0.548   8.198  -7.452  1.00  0.00    -0.649 OA
BRANCH  20  22
HETATM   22  O2  UNL     1       2.628   8.989  -7.442  1.00  0.00    -0.775 OA
HETATM   23  H4  UNL     1       2.622   9.636  -8.179  1.00  0.00     0.167 HD
ENDBRANCH  20  22
ENDBRANCH   5  20
TORSDOF 4
ENDMDL
