MODEL 1
REMARK VINA RESULT:      -7.3      0.000      0.000
REMARK  10 active torsions:
REMARK  status: ('A' for Active; 'I' for Inactive)
REMARK    1  A    between atoms: C2_2  and  O2_8 
REMARK    2  A    between atoms: C5_5  and  C6_6 
REMARK    3  A    between atoms: C5_5  and  O3_9 
REMARK    4  A    between atoms: C6_6  and  O6_12 
REMARK    5  A    between atoms: O4_10  and  P1_16 
REMARK    6  A    between atoms: O5_11  and  P2_20 
REMARK    7  A    between atoms: O6_12  and  P3_24 
REMARK    8  A    between atoms: P1_16  and  O9_19 
REMARK    9  A    between atoms: P2_20  and  O12_23 
REMARK   10  A    between atoms: P3_24  and  O15_27 
ROOT
HETATM    1  C1  UNL     1       1.309   5.332 -11.011  1.00  0.00     0.181 A 
HETATM    2  C2  UNL     1       0.188   4.314 -11.291  1.00  0.00     0.181 A 
HETATM    3  C3  UNL     1       0.494   3.418 -12.503  1.00  0.00     0.198 A 
HETATM    4  C4  UNL     1       0.890   4.242 -13.734  1.00  0.00     0.198 A 
HETATM    5  C5  UNL     1       1.926   5.346 -13.462  1.00  0.00     0.182 A 
HETATM    6  C6  UNL     1       1.590   6.220 -12.236  1.00  0.00     0.197 A 
HETATM    7  O1  UNL     1       2.531   4.667 -10.632  1.00  0.00    -0.390 OA
HETATM    8  O4  UNL     1       1.477   3.387 -14.730  1.00  0.00    -0.279 OA
HETATM    9  O5  UNL     1      -0.719   2.738 -12.865  1.00  0.00    -0.279 OA
HETATM   10 NA1  UNL     1       1.025   4.399 -12.618  1.00  0.00     0.000 Na
HETATM   11 NA2  UNL     1       1.025   4.399 -12.618  1.00  0.00     0.000 Na
HETATM   12 NA3  UNL     1       1.025   4.399 -12.618  1.00  0.00     0.000 Na
HETATM   13  H7  UNL     1       3.061   5.394 -10.238  1.00  0.00     0.210 HD
ENDROOT
BRANCH   6  14
HETATM   14  O6  UNL     1       2.709   7.099 -12.024  1.00  0.00    -0.279 OA
BRANCH  14  15
HETATM   15  P3  UNL     1       2.638   8.633 -12.497  1.00  0.00     0.406 P 
HETATM   16  O13 UNL     1       1.465   8.836 -13.419  1.00  0.00    -0.624 OA
HETATM   17  O14 UNL     1       2.990   9.604 -11.410  1.00  0.00    -0.624 OA
BRANCH  15  18
HETATM   18  O15 UNL     1       3.854   8.589 -13.563  1.00  0.00    -0.300 OA
HETATM   19  H12 UNL     1       3.384   8.888 -14.363  1.00  0.00     0.223 HD
ENDBRANCH  15  18
ENDBRANCH  14  15
ENDBRANCH   6  14
BRANCH   2  20
HETATM   20  O2  UNL     1      -0.059   3.554 -10.092  1.00  0.00    -0.390 OA
HETATM   21  H8  UNL     1      -0.868   3.930  -9.648  1.00  0.00     0.210 HD
ENDBRANCH   2  20
BRANCH   5  22
HETATM   22  O3  UNL     1       2.008   6.182 -14.644  1.00  0.00    -0.390 OA
HETATM   23  H9  UNL     1       2.795   6.750 -14.508  1.00  0.00     0.210 HD
ENDBRANCH   5  22
BRANCH   8  24
HETATM   24  P1  UNL     1       0.658   2.989 -16.062  1.00  0.00     0.406 P 
HETATM   25  O7  UNL     1       1.452   3.391 -17.277  1.00  0.00    -0.624 OA
HETATM   26  O8  UNL     1      -0.784   3.384 -15.909  1.00  0.00    -0.624 OA
BRANCH  24  27
HETATM   27  O9  UNL     1       0.718   1.386 -15.937  1.00  0.00    -0.300 OA
HETATM   28  H10 UNL     1       1.435   1.077 -16.530  1.00  0.00     0.223 HD
ENDBRANCH  24  27
ENDBRANCH   8  24
BRANCH   9  29
HETATM   29  P2  UNL     1      -0.941   1.209 -12.393  1.00  0.00     0.406 P 
HETATM   30  O10 UNL     1      -2.157   1.175 -11.509  1.00  0.00    -0.624 OA
HETATM   31  O11 UNL     1      -0.787   0.324 -13.598  1.00  0.00    -0.624 OA
BRANCH  29  32
HETATM   32  O12 UNL     1       0.384   1.040 -11.499  1.00  0.00    -0.300 OA
HETATM   33  H11 UNL     1       0.756   1.941 -11.356  1.00  0.00     0.223 HD
ENDBRANCH  29  32
ENDBRANCH   9  29
TORSDOF 10
ENDMDL
MODEL 2
REMARK VINA RESULT:      -6.7      1.229      3.644
REMARK  10 active torsions:
REMARK  status: ('A' for Active; 'I' for Inactive)
REMARK    1  A    between atoms: C2_2  and  O2_8 
REMARK    2  A    between atoms: C5_5  and  C6_6 
REMARK    3  A    between atoms: C5_5  and  O3_9 
REMARK    4  A    between atoms: C6_6  and  O6_12 
REMARK    5  A    between atoms: O4_10  and  P1_16 
REMARK    6  A    between atoms: O5_11  and  P2_20 
REMARK    7  A    between atoms: O6_12  and  P3_24 
REMARK    8  A    between atoms: P1_16  and  O9_19 
REMARK    9  A    between atoms: P2_20  and  O12_23 
REMARK   10  A    between atoms: P3_24  and  O15_27 
ROOT
HETATM    1  C1  UNL     1       1.651   6.451 -14.058  1.00  0.00     0.181 A 
HETATM    2  C2  UNL     1       1.507   4.989 -14.521  1.00  0.00     0.181 A 
HETATM    3  C3  UNL     1       0.585   4.168 -13.604  1.00  0.00     0.198 A 
HETATM    4  C4  UNL     1       0.983   4.303 -12.129  1.00  0.00     0.198 A 
HETATM    5  C5  UNL     1       1.247   5.745 -11.665  1.00  0.00     0.182 A 
HETATM    6  C6  UNL     1       2.170   6.540 -12.611  1.00  0.00     0.197 A 
HETATM    7  O1  UNL     1       0.392   7.149 -14.142  1.00  0.00    -0.390 OA
HETATM    8  O4  UNL     1      -0.071   3.804 -11.289  1.00  0.00    -0.279 OA
HETATM    9  O5  UNL     1       0.764   2.780 -13.929  1.00  0.00    -0.279 OA
HETATM   10 NA1  UNL     1       1.047   5.005 -13.019  1.00  0.00     0.000 Na
HETATM   11 NA2  UNL     1       1.047   5.005 -13.019  1.00  0.00     0.000 Na
HETATM   12 NA3  UNL     1       1.047   5.005 -13.019  1.00  0.00     0.000 Na
HETATM   13  H7  UNL     1       0.661   8.091 -14.082  1.00  0.00     0.210 HD
ENDROOT
BRANCH   6  14
HETATM   14  O6  UNL     1       2.203   7.895 -12.131  1.00  0.00    -0.279 OA
BRANCH  14  15
HETATM   15  P3  UNL     1       2.859   9.059 -13.025  1.00  0.00     0.406 P 
HETATM   16  O13 UNL     1       4.068   8.532 -13.752  1.00  0.00    -0.624 OA
HETATM   17  O14 UNL     1       1.842   9.944 -13.682  1.00  0.00    -0.624 OA
BRANCH  15  18
HETATM   18  O15 UNL     1       3.565   9.884 -11.827  1.00  0.00    -0.300 OA
HETATM   19  H12 UNL     1       4.498   9.805 -12.099  1.00  0.00     0.223 HD
ENDBRANCH  15  18
ENDBRANCH  14  15
ENDBRANCH   6  14
BRANCH   2  20
HETATM   20  O2  UNL     1       1.070   4.979 -15.895  1.00  0.00    -0.390 OA
HETATM   21  H8  UNL     1       1.844   5.235 -16.467  1.00  0.00     0.210 HD
ENDBRANCH   2  20
BRANCH   5  22
HETATM   22  O3  UNL     1       1.843   5.686 -10.344  1.00  0.00    -0.390 OA
HETATM   23  H9  UNL     1       1.187   6.095  -9.743  1.00  0.00     0.210 HD
ENDBRANCH   5  22
BRANCH   8  24
HETATM   24  P1  UNL     1       0.079   2.389 -10.529  1.00  0.00     0.406 P 
HETATM   25  O7  UNL     1      -0.543   2.484  -9.161  1.00  0.00    -0.624 OA
HETATM   26  O8  UNL     1       1.473   1.858 -10.715  1.00  0.00    -0.624 OA
BRANCH  24  27
HETATM   27  O9  UNL     1      -0.888   1.492 -11.453  1.00  0.00    -0.300 OA
HETATM   28  H10 UNL     1      -1.774   1.499 -11.033  1.00  0.00     0.223 HD
ENDBRANCH  24  27
ENDBRANCH   8  24
BRANCH   9  29
HETATM   29  P2  UNL     1      -0.315   2.043 -14.878  1.00  0.00     0.406 P 
HETATM   30  O10 UNL     1      -0.713   0.757 -14.206  1.00  0.00    -0.624 OA
HETATM   31  O11 UNL     1      -1.317   3.069 -15.328  1.00  0.00    -0.624 OA
BRANCH  29  32
HETATM   32  O12 UNL     1       0.643   1.725 -16.129  1.00  0.00    -0.300 OA
HETATM   33  H11 UNL     1       1.463   2.257 -16.010  1.00  0.00     0.223 HD
ENDBRANCH  29  32
ENDBRANCH   9  29
TORSDOF 10
ENDMDL
