MODEL 1
REMARK VINA RESULT:      -7.7      0.000      0.000
REMARK  7 active torsions:
REMARK  status: ('A' for Active; 'I' for Inactive)
REMARK    1  A    between atoms: C6_6  and  C7_7 
REMARK    2  A    between atoms: C7_7  and  O4_25 
REMARK    3  A    between atoms: C13_14  and  C16_18 
REMARK    4  A    between atoms: C15_16  and  O2_17 
REMARK    5  A    between atoms: C16_18  and  C17_19 
REMARK    6  A    between atoms: C17_19  and  C18_20 
REMARK    7  A    between atoms: C18_20  and  C19_21 
ROOT
HETATM    1  C1  UNL     1      -3.410  -1.572  -9.516  1.00  0.00     0.046 C 
HETATM    2  C2  UNL     1      -2.408  -0.468  -9.151  1.00  0.00     0.013 C 
HETATM    3  C3  UNL     1      -2.208   0.491 -10.336  1.00  0.00     0.032 C 
HETATM    4  C4  UNL     1      -1.574  -0.294 -11.513  1.00  0.00     0.054 C 
HETATM    5  C5  UNL     1      -2.485  -1.462 -11.844  1.00  0.00    -0.003 C 
HETATM    6  C6  UNL     1      -3.305  -2.039 -10.942  1.00  0.00     0.012 C 
HETATM    7  C8  UNL     1      -1.401   1.770 -10.042  1.00  0.00     0.065 C 
HETATM    8  C9  UNL     1      -2.078   2.601  -8.937  1.00  0.00     0.046 C 
HETATM    9  O1  UNL     1      -1.436   2.625 -11.202  1.00  0.00    -0.340 OA
HETATM   10  C10 UNL     1      -1.218   2.036 -12.420  1.00  0.00     0.080 A 
HETATM   11  C11 UNL     1      -1.234   0.653 -12.648  1.00  0.00     0.017 A 
HETATM   12  C12 UNL     1      -0.943   2.940 -13.453  1.00  0.00     0.044 A 
HETATM   13  C13 UNL     1      -0.614   2.490 -14.734  1.00  0.00    -0.053 A 
HETATM   14  C14 UNL     1      -0.531   1.112 -14.951  1.00  0.00     0.044 A 
HETATM   15  C15 UNL     1      -0.818   0.214 -13.915  1.00  0.00     0.075 A 
HETATM   16  C21 UNL     1       0.060   1.534  -9.626  1.00  0.00     0.046 C 
ENDROOT
BRANCH  13  17
HETATM   17  C16 UNL     1      -0.322   3.469 -15.842  1.00  0.00     0.039 C 
BRANCH  17  18
HETATM   18  C17 UNL     1       1.153   3.512 -16.259  1.00  0.00     0.005 C 
BRANCH  18  19
HETATM   19  C18 UNL     1       2.088   4.240 -15.284  1.00  0.00    -0.000 C 
BRANCH  19  20
HETATM   20  C19 UNL     1       1.560   5.563 -14.723  1.00  0.00    -0.005 C 
HETATM   21  C20 UNL     1       1.690   5.679 -13.212  1.00  0.00     0.005 C 
ENDBRANCH  19  20
ENDBRANCH  18  19
ENDBRANCH  17  18
ENDBRANCH  13  17
BRANCH  15  22
HETATM   22  O2  UNL     1      -0.643  -1.123 -14.144  1.00  0.00    -0.360 OA
HETATM   23  H16 UNL     1      -1.509  -1.560 -14.167  1.00  0.00     0.217 HD
ENDBRANCH  15  22
BRANCH   6  24
HETATM   24  C7  UNL     1      -4.137  -3.179 -11.390  1.00  0.00     0.171 C 
HETATM   25  O3  UNL     1      -5.323  -3.351 -11.175  1.00  0.00    -0.646 OA
BRANCH  24  26
HETATM   26  O4  UNL     1      -3.429  -4.072 -12.101  1.00  0.00    -0.773 OA
HETATM   27  H28 UNL     1      -3.896  -4.092 -12.962  1.00  0.00     0.167 HD
ENDBRANCH  24  26
ENDBRANCH   6  24
TORSDOF 7
ENDMDL
MODEL 2
REMARK VINA RESULT:      -7.5      2.622      5.800
REMARK  7 active torsions:
REMARK  status: ('A' for Active; 'I' for Inactive)
REMARK    1  A    between atoms: C6_6  and  C7_7 
REMARK    2  A    between atoms: C7_7  and  O4_25 
REMARK    3  A    between atoms: C13_14  and  C16_18 
REMARK    4  A    between atoms: C15_16  and  O2_17 
REMARK    5  A    between atoms: C16_18  and  C17_19 
REMARK    6  A    between atoms: C17_19  and  C18_20 
REMARK    7  A    between atoms: C18_20  and  C19_21 
ROOT
HETATM    1  C1  UNL     1      -0.590   0.669 -13.953  1.00  0.00     0.046 C 
HETATM    2  C2  UNL     1      -0.348   1.810 -14.952  1.00  0.00     0.013 C 
HETATM    3  C3  UNL     1       0.497   2.919 -14.307  1.00  0.00     0.032 C 
HETATM    4  C4  UNL     1      -0.301   3.537 -13.131  1.00  0.00     0.054 C 
HETATM    5  C5  UNL     1      -0.652   2.423 -12.163  1.00  0.00    -0.003 C 
HETATM    6  C6  UNL     1      -0.788   1.135 -12.537  1.00  0.00     0.012 C 
HETATM    7  C8  UNL     1       1.004   4.021 -15.256  1.00  0.00     0.065 C 
HETATM    8  C9  UNL     1       1.877   3.422 -16.373  1.00  0.00     0.046 C 
HETATM    9  O1  UNL     1       1.899   4.890 -14.533  1.00  0.00    -0.340 OA
HETATM   10  C10 UNL     1       1.504   5.297 -13.286  1.00  0.00     0.080 A 
HETATM   11  C11 UNL     1       0.447   4.729 -12.563  1.00  0.00     0.017 A 
HETATM   12  C12 UNL     1       2.238   6.375 -12.775  1.00  0.00     0.044 A 
HETATM   13  C13 UNL     1       1.900   6.959 -11.553  1.00  0.00    -0.053 A 
HETATM   14  C14 UNL     1       0.787   6.466 -10.867  1.00  0.00     0.044 A 
HETATM   15  C15 UNL     1       0.065   5.381 -11.379  1.00  0.00     0.075 A 
HETATM   16  C21 UNL     1      -0.099   4.863 -15.919  1.00  0.00     0.046 C 
ENDROOT
BRANCH  13  17
HETATM   17  C16 UNL     1       2.696   8.117 -11.008  1.00  0.00     0.039 C 
BRANCH  17  18
HETATM   18  C17 UNL     1       3.304   9.017 -12.091  1.00  0.00     0.005 C 
BRANCH  18  19
HETATM   19  C18 UNL     1       2.507  10.288 -12.410  1.00  0.00    -0.000 C 
BRANCH  19  20
HETATM   20  C19 UNL     1       2.203  10.526 -13.891  1.00  0.00    -0.005 C 
HETATM   21  C20 UNL     1       2.675   9.402 -14.799  1.00  0.00     0.005 C 
ENDBRANCH  19  20
ENDBRANCH  18  19
ENDBRANCH  17  18
ENDBRANCH  13  17
BRANCH  15  22
HETATM   22  O2  UNL     1      -1.066   4.982 -10.721  1.00  0.00    -0.360 OA
HETATM   23  H16 UNL     1      -1.627   4.473 -11.327  1.00  0.00     0.217 HD
ENDBRANCH  15  22
BRANCH   6  24
HETATM   24  C7  UNL     1      -1.143   0.143 -11.495  1.00  0.00     0.171 C 
HETATM   25  O3  UNL     1      -0.379  -0.459 -10.765  1.00  0.00    -0.646 OA
BRANCH  24  26
HETATM   26  O4  UNL     1      -2.470  -0.053 -11.418  1.00  0.00    -0.773 OA
HETATM   27  H28 UNL     1      -2.606  -0.291 -10.476  1.00  0.00     0.167 HD
ENDBRANCH  24  26
ENDBRANCH   6  24
TORSDOF 7
ENDMDL
