MODEL 1
REMARK VINA RESULT:      -8.1      0.000      0.000
REMARK  4 active torsions:
REMARK  status: ('A' for Active; 'I' for Inactive)
REMARK    1  A    between atoms: C4_4  and  N1_15 
REMARK       I    between atoms: N1_15  and  C15_16 
REMARK    2  A    between atoms: C15_16  and  C16_17 
REMARK    3  A    between atoms: C19_21  and  C22_24 
REMARK    4  A    between atoms: C22_24  and  O2_25 
ROOT
HETATM    1  C1  UNL     1       0.204   2.766 -14.104  1.00  0.00    -0.043 A 
HETATM    2  C2  UNL     1       0.503   2.941 -12.735  1.00  0.00    -0.041 A 
HETATM    3  C3  UNL     1       0.171   1.901 -11.833  1.00  0.00     0.038 A 
HETATM    4  C4  UNL     1      -0.405   0.696 -12.253  1.00  0.00     0.035 A 
HETATM    5  C5  UNL     1      -0.653   0.519 -13.605  1.00  0.00     0.030 A 
HETATM    6  C6  UNL     1      -0.352   1.536 -14.514  1.00  0.00     0.011 A 
HETATM    7  C7  UNL     1       0.501   3.841 -15.158  1.00  0.00    -0.020 C 
HETATM    8  C8  UNL     1       0.783   5.213 -14.507  1.00  0.00     0.015 C 
HETATM    9  C9  UNL     1       1.730   5.097 -13.324  1.00  0.00     0.015 C 
HETATM   10  C10 UNL     1       1.137   4.230 -12.190  1.00  0.00    -0.020 C 
HETATM   11  C11 UNL     1       1.721   3.394 -15.992  1.00  0.00     0.020 C 
HETATM   12  C12 UNL     1      -0.694   4.050 -16.119  1.00  0.00     0.020 C 
HETATM   13  C13 UNL     1       2.301   3.933 -11.214  1.00  0.00     0.020 C 
HETATM   14  C14 UNL     1       0.056   5.029 -11.430  1.00  0.00     0.020 C 
ENDROOT
BRANCH   4  15
HETATM   15  N1  UNL     1      -0.681  -0.273 -11.264  1.00  0.00    -0.323 N 
HETATM   16  C15 UNL     1       0.036  -1.424 -10.997  1.00  0.00     0.256 C 
HETATM   17  O1  UNL     1       1.004  -1.853 -11.612  1.00  0.00    -0.267 OA
HETATM   18  H20 UNL     1      -1.538  -0.131 -10.747  1.00  0.00     0.169 HD
BRANCH  16  19
HETATM   19  C16 UNL     1      -0.479  -2.229  -9.852  1.00  0.00     0.032 A 
HETATM   20  C17 UNL     1      -1.070  -3.471 -10.119  1.00  0.00     0.018 A 
HETATM   21  C18 UNL     1      -1.562  -4.257  -9.072  1.00  0.00     0.019 A 
HETATM   22  C19 UNL     1      -1.455  -3.812  -7.750  1.00  0.00     0.037 A 
HETATM   23  C20 UNL     1      -0.847  -2.578  -7.482  1.00  0.00     0.019 A 
HETATM   24  C21 UNL     1      -0.355  -1.789  -8.528  1.00  0.00     0.018 A 
BRANCH  22  25
HETATM   25  C22 UNL     1      -1.961  -4.609  -6.606  1.00  0.00     0.176 C 
HETATM   26  O3  UNL     1      -2.165  -4.188  -5.482  1.00  0.00    -0.646 OA
BRANCH  25  27
HETATM   27  O2  UNL     1      -2.188  -5.894  -6.925  1.00  0.00    -0.773 OA
HETATM   28  H25 UNL     1      -2.776  -5.845  -7.708  1.00  0.00     0.167 HD
ENDBRANCH  25  27
ENDBRANCH  22  25
ENDBRANCH  16  19
ENDBRANCH   4  15
TORSDOF 4
ENDMDL
MODEL 2
REMARK VINA RESULT:      -7.9      4.390      9.351
REMARK  4 active torsions:
REMARK  status: ('A' for Active; 'I' for Inactive)
REMARK    1  A    between atoms: C4_4  and  N1_15 
REMARK       I    between atoms: N1_15  and  C15_16 
REMARK    2  A    between atoms: C15_16  and  C16_17 
REMARK    3  A    between atoms: C19_21  and  C22_24 
REMARK    4  A    between atoms: C22_24  and  O2_25 
ROOT
HETATM    1  C1  UNL     1      -2.232   0.342 -10.530  1.00  0.00    -0.043 A 
HETATM    2  C2  UNL     1      -1.872   1.392  -9.657  1.00  0.00    -0.041 A 
HETATM    3  C3  UNL     1      -1.173   2.502 -10.190  1.00  0.00     0.038 A 
HETATM    4  C4  UNL     1      -0.862   2.613 -11.550  1.00  0.00     0.035 A 
HETATM    5  C5  UNL     1      -1.260   1.597 -12.404  1.00  0.00     0.030 A 
HETATM    6  C6  UNL     1      -1.935   0.481 -11.901  1.00  0.00     0.011 A 
HETATM    7  C7  UNL     1      -2.968  -0.917 -10.048  1.00  0.00    -0.020 C 
HETATM    8  C8  UNL     1      -2.911  -1.055  -8.510  1.00  0.00     0.015 C 
HETATM    9  C9  UNL     1      -3.214   0.258  -7.810  1.00  0.00     0.015 C 
HETATM   10  C10 UNL     1      -2.176   1.351  -8.152  1.00  0.00    -0.020 C 
HETATM   11  C11 UNL     1      -4.438  -0.839 -10.514  1.00  0.00     0.020 C 
HETATM   12  C12 UNL     1      -2.342  -2.207 -10.628  1.00  0.00     0.020 C 
HETATM   13  C13 UNL     1      -2.768   2.689  -7.647  1.00  0.00     0.020 C 
HETATM   14  C14 UNL     1      -0.860   1.082  -7.389  1.00  0.00     0.020 C 
ENDROOT
BRANCH   4  15
HETATM   15  N1  UNL     1      -0.173   3.772 -11.968  1.00  0.00    -0.323 N 
HETATM   16  C15 UNL     1       1.193   3.985 -11.953  1.00  0.00     0.256 C 
HETATM   17  O1  UNL     1       2.054   3.234 -11.512  1.00  0.00    -0.267 OA
HETATM   18  H20 UNL     1      -0.758   4.549 -12.242  1.00  0.00     0.169 HD
BRANCH  16  19
HETATM   19  C16 UNL     1       1.627   5.300 -12.506  1.00  0.00     0.032 A 
HETATM   20  C17 UNL     1       2.358   6.165 -11.681  1.00  0.00     0.018 A 
HETATM   21  C18 UNL     1       2.786   7.406 -12.163  1.00  0.00     0.019 A 
HETATM   22  C19 UNL     1       2.495   7.785 -13.478  1.00  0.00     0.037 A 
HETATM   23  C20 UNL     1       1.780   6.912 -14.309  1.00  0.00     0.019 A 
HETATM   24  C21 UNL     1       1.351   5.671 -13.828  1.00  0.00     0.018 A 
BRANCH  22  25
HETATM   25  C22 UNL     1       2.928   9.090 -14.036  1.00  0.00     0.176 C 
HETATM   26  O3  UNL     1       2.284  10.123 -14.007  1.00  0.00    -0.646 OA
BRANCH  25  27
HETATM   27  O2  UNL     1       4.146   9.039 -14.601  1.00  0.00    -0.773 OA
HETATM   28  H25 UNL     1       4.224   9.892 -15.077  1.00  0.00     0.167 HD
ENDBRANCH  25  27
ENDBRANCH  22  25
ENDBRANCH  16  19
ENDBRANCH   4  15
TORSDOF 4
ENDMDL
