MODEL 1
REMARK VINA RESULT:      -7.8      0.000      0.000
REMARK  10 active torsions:
REMARK  status: ('A' for Active; 'I' for Inactive)
REMARK    1  A    between atoms: C1_1  and  O2_28 
REMARK    2  A    between atoms: C7_8  and  C10_11 
REMARK    3  A    between atoms: C10_11  and  C11_12 
REMARK    4  A    between atoms: C11_12  and  C12_13 
REMARK    5  A    between atoms: C14_15  and  C15_16 
REMARK    6  A    between atoms: C15_16  and  C17_18 
REMARK    7  A    between atoms: C17_18  and  C18_19 
REMARK    8  A    between atoms: C19_20  and  C20_21 
REMARK    9  A    between atoms: C20_21  and  C22_23 
REMARK   10  A    between atoms: C22_23  and  C23_24 
ROOT
HETATM    1  C10 UNL     1       1.137   6.480 -12.591  1.00  0.00     0.042 C 
ENDROOT
BRANCH   1   2
HETATM    2  C7  UNL     1       1.305   5.498 -11.401  1.00  0.00     0.065 C 
HETATM    3  O1  UNL     1      -0.029   5.358 -10.869  1.00  0.00    -0.339 OA
HETATM    4  C4  UNL     1      -0.314   4.257 -10.104  1.00  0.00     0.082 A 
HETATM    5  C3  UNL     1      -1.541   4.295  -9.422  1.00  0.00    -0.025 A 
HETATM    6  C5  UNL     1       0.534   3.140 -10.002  1.00  0.00    -0.015 A 
HETATM    7  C2  UNL     1      -1.909   3.213  -8.617  1.00  0.00     0.046 A 
HETATM    8  C27 UNL     1      -2.454   5.481  -9.553  1.00  0.00     0.051 C 
HETATM    9  C1  UNL     1      -1.059   2.116  -8.489  1.00  0.00     0.072 A 
HETATM   10  C6  UNL     1       0.173   2.066  -9.156  1.00  0.00    -0.020 A 
HETATM   11  C28 UNL     1       1.066   0.861  -9.007  1.00  0.00     0.052 C 
HETATM   12  C9  UNL     1       1.829   3.114 -10.771  1.00  0.00     0.045 C 
HETATM   13  C8  UNL     1       1.833   4.144 -11.891  1.00  0.00     0.043 C 
HETATM   14  C13 UNL     1       2.193   6.127 -10.317  1.00  0.00     0.046 C 
BRANCH   9  15
HETATM   15  O2  UNL     1      -1.434   1.061  -7.703  1.00  0.00    -0.360 OA
HETATM   16  H36 UNL     1      -0.851   1.028  -6.927  1.00  0.00     0.217 HD
ENDBRANCH   9  15
ENDBRANCH   1   2
BRANCH   1  17
HETATM   17  C11 UNL     1       1.929   6.141 -13.860  1.00  0.00     0.030 C 
BRANCH  17  18
HETATM   18  C12 UNL     1       1.059   5.397 -14.839  1.00  0.00    -0.024 C 
HETATM   19  C14 UNL     1       1.343   4.279 -15.539  1.00  0.00    -0.087 C 
HETATM   20  C16 UNL     1       2.657   3.547 -15.505  1.00  0.00     0.043 C 
BRANCH  19  21
HETATM   21  C15 UNL     1       0.298   3.686 -16.469  1.00  0.00     0.037 C 
BRANCH  21  22
HETATM   22  C17 UNL     1      -0.864   3.032 -15.711  1.00  0.00     0.031 C 
BRANCH  22  23
HETATM   23  C18 UNL     1      -0.369   2.000 -14.733  1.00  0.00    -0.024 C 
HETATM   24  C19 UNL     1      -0.762   1.812 -13.458  1.00  0.00    -0.087 C 
HETATM   25  C21 UNL     1      -1.758   2.678 -12.736  1.00  0.00     0.043 C 
BRANCH  24  26
HETATM   26  C20 UNL     1      -0.163   0.681 -12.637  1.00  0.00     0.037 C 
BRANCH  26  27
HETATM   27  C22 UNL     1      -0.918  -0.654 -12.738  1.00  0.00     0.031 C 
BRANCH  27  28
HETATM   28  C23 UNL     1      -1.038  -1.371 -11.420  1.00  0.00    -0.024 C 
HETATM   29  C24 UNL     1      -1.984  -1.204 -10.475  1.00  0.00    -0.091 C 
HETATM   30  C25 UNL     1      -1.966  -2.028  -9.215  1.00  0.00     0.042 C 
HETATM   31  C26 UNL     1      -3.111  -0.208 -10.552  1.00  0.00     0.042 C 
ENDBRANCH  27  28
ENDBRANCH  26  27
ENDBRANCH  24  26
ENDBRANCH  22  23
ENDBRANCH  21  22
ENDBRANCH  19  21
ENDBRANCH  17  18
ENDBRANCH   1  17
TORSDOF 10
ENDMDL
MODEL 2
REMARK VINA RESULT:      -7.6      1.981      3.164
REMARK  10 active torsions:
REMARK  status: ('A' for Active; 'I' for Inactive)
REMARK    1  A    between atoms: C1_1  and  O2_28 
REMARK    2  A    between atoms: C7_8  and  C10_11 
REMARK    3  A    between atoms: C10_11  and  C11_12 
REMARK    4  A    between atoms: C11_12  and  C12_13 
REMARK    5  A    between atoms: C14_15  and  C15_16 
REMARK    6  A    between atoms: C15_16  and  C17_18 
REMARK    7  A    between atoms: C17_18  and  C18_19 
REMARK    8  A    between atoms: C19_20  and  C20_21 
REMARK    9  A    between atoms: C20_21  and  C22_23 
REMARK   10  A    between atoms: C22_23  and  C23_24 
ROOT
HETATM    1  C10 UNL     1       0.750   6.989 -12.979  1.00  0.00     0.042 C 
ENDROOT
BRANCH   1   2
HETATM    2  C7  UNL     1       1.580   6.930 -11.669  1.00  0.00     0.065 C 
HETATM    3  O1  UNL     1       0.586   6.875 -10.624  1.00  0.00    -0.339 OA
HETATM    4  C4  UNL     1       0.956   6.390  -9.397  1.00  0.00     0.082 A 
HETATM    5  C3  UNL     1       0.025   6.584  -8.364  1.00  0.00    -0.025 A 
HETATM    6  C5  UNL     1       2.170   5.723  -9.158  1.00  0.00    -0.015 A 
HETATM    7  C2  UNL     1       0.324   6.122  -7.079  1.00  0.00     0.046 A 
HETATM    8  C27 UNL     1      -1.281   7.277  -8.629  1.00  0.00     0.051 C 
HETATM    9  C1  UNL     1       1.539   5.484  -6.830  1.00  0.00     0.072 A 
HETATM   10  C6  UNL     1       2.483   5.292  -7.848  1.00  0.00    -0.020 A 
HETATM   11  C28 UNL     1       3.783   4.590  -7.551  1.00  0.00     0.052 C 
HETATM   12  C9  UNL     1       3.135   5.502 -10.293  1.00  0.00     0.045 C 
HETATM   13  C8  UNL     1       2.456   5.672 -11.644  1.00  0.00     0.043 C 
HETATM   14  C13 UNL     1       2.390   8.224 -11.497  1.00  0.00     0.046 C 
BRANCH   9  15
HETATM   15  O2  UNL     1       1.816   5.032  -5.570  1.00  0.00    -0.360 OA
HETATM   16  H36 UNL     1       1.633   5.743  -4.935  1.00  0.00     0.217 HD
ENDBRANCH   9  15
ENDBRANCH   1   2
BRANCH   1  17
HETATM   17  C11 UNL     1       1.492   6.602 -14.264  1.00  0.00     0.030 C 
BRANCH  17  18
HETATM   18  C12 UNL     1       0.724   5.547 -15.017  1.00  0.00    -0.024 C 
HETATM   19  C14 UNL     1       1.140   4.330 -15.423  1.00  0.00    -0.087 C 
HETATM   20  C16 UNL     1       2.526   3.780 -15.229  1.00  0.00     0.043 C 
BRANCH  19  21
HETATM   21  C15 UNL     1       0.180   3.414 -16.163  1.00  0.00     0.037 C 
BRANCH  21  22
HETATM   22  C17 UNL     1      -0.306   2.245 -15.298  1.00  0.00     0.031 C 
BRANCH  22  23
HETATM   23  C18 UNL     1      -0.955   2.733 -14.030  1.00  0.00    -0.024 C 
HETATM   24  C19 UNL     1      -1.176   2.042 -12.895  1.00  0.00    -0.087 C 
HETATM   25  C21 UNL     1      -0.862   0.583 -12.708  1.00  0.00     0.043 C 
BRANCH  24  26
HETATM   26  C20 UNL     1      -1.818   2.730 -11.699  1.00  0.00     0.037 C 
BRANCH  26  27
HETATM   27  C22 UNL     1      -0.881   3.667 -10.921  1.00  0.00     0.031 C 
BRANCH  27  28
HETATM   28  C23 UNL     1      -0.428   3.095  -9.604  1.00  0.00    -0.024 C 
HETATM   29  C24 UNL     1       0.706   2.412  -9.351  1.00  0.00    -0.091 C 
HETATM   30  C25 UNL     1       1.016   1.928  -7.960  1.00  0.00     0.042 C 
HETATM   31  C26 UNL     1       1.742   2.051 -10.382  1.00  0.00     0.042 C 
ENDBRANCH  27  28
ENDBRANCH  26  27
ENDBRANCH  24  26
ENDBRANCH  22  23
ENDBRANCH  21  22
ENDBRANCH  19  21
ENDBRANCH  17  18
ENDBRANCH   1  17
TORSDOF 10
ENDMDL
