MODEL 1
REMARK VINA RESULT:      -7.8      0.000      0.000
REMARK  10 active torsions:
REMARK  status: ('A' for Active; 'I' for Inactive)
REMARK    1  A    between atoms: C1_1  and  C2_2 
REMARK    2  A    between atoms: C1_1  and  C3_4 
REMARK    3  A    between atoms: C3_4  and  C11_13 
REMARK    4  A    between atoms: N1_6  and  C7_9 
REMARK    5  A    between atoms: C7_9  and  C8_10 
REMARK    6  A    between atoms: C8_10  and  C9_11 
REMARK    7  A    between atoms: C9_11  and  C10_12 
REMARK    8  A    between atoms: C10_12  and  C21_23 
REMARK    9  A    between atoms: C11_13  and  C12_14 
REMARK   10  A    between atoms: C21_23  and  O3_25 
ROOT
HETATM    1  C2  UNL     1      -0.113   3.014 -12.637  1.00  0.00     0.038 A 
HETATM    2  C4  UNL     1       0.488   4.065 -11.962  1.00  0.00     0.107 A 
HETATM    3  N1  UNL     1       1.259   4.774 -12.838  1.00  0.00    -0.355 N 
HETATM    4  C5  UNL     1       1.175   4.223 -14.097  1.00  0.00     0.045 A 
HETATM    5  C6  UNL     1       0.316   3.117 -14.007  1.00  0.00     0.006 A 
HETATM    6  C17 UNL     1       1.785   4.609 -15.305  1.00  0.00     0.030 A 
HETATM    7  C18 UNL     1       1.516   3.862 -16.452  1.00  0.00     0.002 A 
HETATM    8  C19 UNL     1       0.665   2.769 -16.402  1.00  0.00     0.001 A 
HETATM    9  C20 UNL     1       0.062   2.391 -15.195  1.00  0.00     0.014 A 
ENDROOT
BRANCH   1  10
HETATM   10  C1  UNL     1      -1.003   2.058 -11.957  1.00  0.00     0.162 C 
HETATM   11  O1  UNL     1      -2.222   2.226 -11.997  1.00  0.00    -0.292 OA
BRANCH  10  12
HETATM   12  C3  UNL     1      -0.384   0.869 -11.235  1.00  0.00     0.097 C 
BRANCH  12  13
HETATM   13  C11 UNL     1      -0.710  -0.557 -11.760  1.00  0.00    -0.019 C 
HETATM   14  C13 UNL     1       0.400  -1.567 -11.394  1.00  0.00     0.020 C 
HETATM   15  C14 UNL     1      -0.830  -0.537 -13.303  1.00  0.00     0.020 C 
BRANCH  13  16
HETATM   16  C12 UNL     1      -2.043  -1.004 -11.083  1.00  0.00    -0.085 C 
HETATM   17  C15 UNL     1      -2.198  -0.744  -9.601  1.00  0.00     0.043 C 
HETATM   18  C16 UNL     1      -3.064  -1.593 -11.735  1.00  0.00     0.014 C 
ENDBRANCH  13  16
ENDBRANCH  12  13
ENDBRANCH  10  12
ENDBRANCH   1  10
BRANCH   3  19
HETATM   19  C7  UNL     1       2.033   5.953 -12.472  1.00  0.00     0.128 C 
BRANCH  19  20
HETATM   20  C8  UNL     1       1.138   7.166 -12.214  1.00  0.00     0.021 C 
BRANCH  20  21
HETATM   21  C9  UNL     1       0.834   7.970 -13.481  1.00  0.00     0.012 C 
BRANCH  21  22
HETATM   22  C10 UNL     1       2.012   8.034 -14.454  1.00  0.00     0.110 C 
BRANCH  22  23
HETATM   23  C21 UNL     1       2.928   9.186 -14.139  1.00  0.00     0.139 C 
HETATM   24  O2  UNL     1       2.635  10.365 -14.046  1.00  0.00    -0.650 OA
BRANCH  23  25
HETATM   25  O3  UNL     1       4.201   8.779 -13.967  1.00  0.00    -0.776 OA
HETATM   26  H27 UNL     1       4.279   8.639 -13.000  1.00  0.00     0.167 HD
ENDBRANCH  23  25
ENDBRANCH  22  23
ENDBRANCH  21  22
ENDBRANCH  20  21
ENDBRANCH  19  20
ENDBRANCH   3  19
TORSDOF 10
ENDMDL
MODEL 2
REMARK VINA RESULT:      -7.6      1.308      1.994
REMARK  10 active torsions:
REMARK  status: ('A' for Active; 'I' for Inactive)
REMARK    1  A    between atoms: C1_1  and  C2_2 
REMARK    2  A    between atoms: C1_1  and  C3_4 
REMARK    3  A    between atoms: C3_4  and  C11_13 
REMARK    4  A    between atoms: N1_6  and  C7_9 
REMARK    5  A    between atoms: C7_9  and  C8_10 
REMARK    6  A    between atoms: C8_10  and  C9_11 
REMARK    7  A    between atoms: C9_11  and  C10_12 
REMARK    8  A    between atoms: C10_12  and  C21_23 
REMARK    9  A    between atoms: C11_13  and  C12_14 
REMARK   10  A    between atoms: C21_23  and  O3_25 
ROOT
HETATM    1  C2  UNL     1      -0.024   3.994 -12.581  1.00  0.00     0.038 A 
HETATM    2  C4  UNL     1       0.735   5.118 -12.293  1.00  0.00     0.107 A 
HETATM    3  N1  UNL     1       1.471   5.453 -13.392  1.00  0.00    -0.355 N 
HETATM    4  C5  UNL     1       1.210   4.577 -14.422  1.00  0.00     0.045 A 
HETATM    5  C6  UNL     1       0.271   3.650 -13.947  1.00  0.00     0.006 A 
HETATM    6  C17 UNL     1       1.725   4.528 -15.731  1.00  0.00     0.030 A 
HETATM    7  C18 UNL     1       1.275   3.520 -16.583  1.00  0.00     0.002 A 
HETATM    8  C19 UNL     1       0.340   2.592 -16.151  1.00  0.00     0.001 A 
HETATM    9  C20 UNL     1      -0.166   2.647 -14.846  1.00  0.00     0.014 A 
ENDROOT
BRANCH   1  10
HETATM   10  C1  UNL     1      -0.919   3.381 -11.587  1.00  0.00     0.162 C 
HETATM   11  O1  UNL     1      -1.350   4.061 -10.655  1.00  0.00    -0.292 OA
BRANCH  10  12
HETATM   12  C3  UNL     1      -1.305   1.918 -11.753  1.00  0.00     0.097 C 
BRANCH  12  13
HETATM   13  C11 UNL     1      -0.461   0.849 -11.002  1.00  0.00    -0.019 C 
HETATM   14  C13 UNL     1      -1.147   0.399  -9.692  1.00  0.00     0.020 C 
HETATM   15  C14 UNL     1       0.920   1.436 -10.625  1.00  0.00     0.020 C 
BRANCH  13  16
HETATM   16  C12 UNL     1      -0.326  -0.382 -11.950  1.00  0.00    -0.085 C 
HETATM   17  C15 UNL     1       0.433  -1.585 -11.434  1.00  0.00     0.043 C 
HETATM   18  C16 UNL     1      -0.851  -0.445 -13.189  1.00  0.00     0.014 C 
ENDBRANCH  13  16
ENDBRANCH  12  13
ENDBRANCH  10  12
ENDBRANCH   1  10
BRANCH   3  19
HETATM   19  C7  UNL     1       2.379   6.591 -13.448  1.00  0.00     0.128 C 
BRANCH  19  20
HETATM   20  C8  UNL     1       1.730   7.808 -14.106  1.00  0.00     0.021 C 
BRANCH  20  21
HETATM   21  C9  UNL     1       2.664   9.018 -14.190  1.00  0.00     0.012 C 
BRANCH  21  22
HETATM   22  C10 UNL     1       2.028  10.310 -13.677  1.00  0.00     0.110 C 
BRANCH  22  23
HETATM   23  C21 UNL     1       2.576  10.700 -12.330  1.00  0.00     0.139 C 
HETATM   24  O2  UNL     1       2.245  11.646 -11.638  1.00  0.00    -0.650 OA
BRANCH  23  25
HETATM   25  O3  UNL     1       3.549   9.859 -11.925  1.00  0.00    -0.776 OA
HETATM   26  H27 UNL     1       3.618  10.021 -10.960  1.00  0.00     0.167 HD
ENDBRANCH  23  25
ENDBRANCH  22  23
ENDBRANCH  21  22
ENDBRANCH  20  21
ENDBRANCH  19  20
ENDBRANCH   3  19
TORSDOF 10
ENDMDL
