MODEL 1
REMARK VINA RESULT:      -8.5      0.000      0.000
REMARK  3 active torsions:
REMARK  status: ('A' for Active; 'I' for Inactive)
REMARK    1  A    between atoms: C1_1  and  C5_11 
REMARK       I    between atoms: N4_5  and  C2_6 
REMARK       I    between atoms: C2_6  and  N5_8 
REMARK    2  A    between atoms: C5_11  and  C6_12 
REMARK    3  A    between atoms: C9_15  and  C12_18 
ROOT
HETATM    1  C6  UNL     1      -1.922  -0.366 -11.884  1.00  0.00    -0.051 A 
HETATM    2  C7  UNL     1      -1.967   1.000 -11.568  1.00  0.00     0.008 A 
HETATM    3  C8  UNL     1      -1.347   1.939 -12.399  1.00  0.00     0.013 A 
HETATM    4  C9  UNL     1      -0.673   1.544 -13.567  1.00  0.00    -0.026 A 
HETATM    5  C10 UNL     1      -0.642   0.175 -13.878  1.00  0.00     0.013 A 
HETATM    6  C11 UNL     1      -1.262  -0.769 -13.051  1.00  0.00     0.008 A 
ENDROOT
BRANCH   1   7
HETATM    7  C5  UNL     1      -2.609  -1.385 -10.999  1.00  0.00     0.120 C 
BRANCH   7   8
HETATM    8  C1  UNL     1      -1.648  -2.146 -10.155  1.00  0.00     0.150 C 
HETATM    9  N1  UNL     1      -0.667  -1.626  -9.436  1.00  0.00    -0.146 NA
HETATM   10  N2  UNL     1       0.078  -2.679  -8.983  1.00  0.00     0.018 NA
HETATM   11  N3  UNL     1      -0.427  -3.832  -9.393  1.00  0.00     0.006 NA
HETATM   12  N4  UNL     1      -1.575  -3.526 -10.051  1.00  0.00    -0.175 N 
HETATM   13  C2  UNL     1      -2.421  -4.560 -10.492  1.00  0.00     0.342 C 
HETATM   14  O1  UNL     1      -1.941  -5.631 -10.851  1.00  0.00    -0.245 OA
HETATM   15  N5  UNL     1      -3.788  -4.244 -10.504  1.00  0.00    -0.341 N 
HETATM   16  C3  UNL     1      -4.415  -3.670  -9.313  1.00  0.00     0.154 C 
HETATM   17  C4  UNL     1      -4.634  -5.169 -11.242  1.00  0.00     0.154 C 
ENDBRANCH   7   8
ENDBRANCH   1   7
BRANCH   4  18
HETATM   18  C12 UNL     1      -0.025   2.535 -14.443  1.00  0.00    -0.026 A 
HETATM   19  C13 UNL     1       0.370   2.200 -15.749  1.00  0.00     0.012 A 
HETATM   20  C14 UNL     1       0.985   3.140 -16.580  1.00  0.00     0.001 A 
HETATM   21  C15 UNL     1       1.217   4.434 -16.117  1.00  0.00     0.000 A 
HETATM   22  C16 UNL     1       0.835   4.787 -14.824  1.00  0.00     0.001 A 
HETATM   23  C17 UNL     1       0.219   3.845 -13.996  1.00  0.00     0.012 A 
ENDBRANCH   4  18
TORSDOF 3
ENDMDL
MODEL 2
REMARK VINA RESULT:      -8.4     16.556     18.105
REMARK  3 active torsions:
REMARK  status: ('A' for Active; 'I' for Inactive)
REMARK    1  A    between atoms: C1_1  and  C5_11 
REMARK       I    between atoms: N4_5  and  C2_6 
REMARK       I    between atoms: C2_6  and  N5_8 
REMARK    2  A    between atoms: C5_11  and  C6_12 
REMARK    3  A    between atoms: C9_15  and  C12_18 
ROOT
HETATM    1  C6  UNL     1      -6.814  12.567 -22.481  1.00  0.00    -0.051 A 
HETATM    2  C7  UNL     1      -7.076  13.891 -22.100  1.00  0.00     0.008 A 
HETATM    3  C8  UNL     1      -8.012  14.167 -21.099  1.00  0.00     0.013 A 
HETATM    4  C9  UNL     1      -8.707  13.134 -20.448  1.00  0.00    -0.026 A 
HETATM    5  C10 UNL     1      -8.432  11.811 -20.832  1.00  0.00     0.013 A 
HETATM    6  C11 UNL     1      -7.494  11.529 -21.832  1.00  0.00     0.008 A 
ENDROOT
BRANCH   1   7
HETATM    7  C5  UNL     1      -5.786  12.261 -23.550  1.00  0.00     0.120 C 
BRANCH   7   8
HETATM    8  C1  UNL     1      -4.979  11.051 -23.235  1.00  0.00     0.150 C 
HETATM    9  N1  UNL     1      -4.463  10.749 -22.056  1.00  0.00    -0.146 NA
HETATM   10  N2  UNL     1      -3.646   9.672 -22.258  1.00  0.00     0.018 NA
HETATM   11  N3  UNL     1      -3.657   9.296 -23.527  1.00  0.00     0.006 NA
HETATM   12  N4  UNL     1      -4.569  10.090 -24.145  1.00  0.00    -0.175 N 
HETATM   13  C2  UNL     1      -4.913   9.840 -25.486  1.00  0.00     0.342 C 
HETATM   14  O1  UNL     1      -4.070   9.397 -26.261  1.00  0.00    -0.245 OA
HETATM   15  N5  UNL     1      -6.235  10.162 -25.830  1.00  0.00    -0.341 N 
HETATM   16  C3  UNL     1      -7.343   9.662 -25.015  1.00  0.00     0.154 C 
HETATM   17  C4  UNL     1      -6.512  10.210 -27.257  1.00  0.00     0.154 C 
ENDBRANCH   7   8
ENDBRANCH   1   7
BRANCH   4  18
HETATM   18  C12 UNL     1      -9.690  13.427 -19.391  1.00  0.00    -0.026 A 
HETATM   19  C13 UNL     1     -10.257  12.397 -18.621  1.00  0.00     0.012 A 
HETATM   20  C14 UNL     1     -11.190  12.674 -17.619  1.00  0.00     0.001 A 
HETATM   21  C15 UNL     1     -11.573  13.991 -17.368  1.00  0.00     0.000 A 
HETATM   22  C16 UNL     1     -11.025  15.028 -18.120  1.00  0.00     0.001 A 
HETATM   23  C17 UNL     1     -10.092  14.747 -19.122  1.00  0.00     0.012 A 
ENDBRANCH   4  18
TORSDOF 3
ENDMDL
