MODEL 1
REMARK VINA RESULT:      -7.9      0.000      0.000
REMARK  8 active torsions:
REMARK  status: ('A' for Active; 'I' for Inactive)
REMARK    1  A    between atoms: N1_1  and  C1_2 
REMARK    2  A    between atoms: C1_2  and  S1_3 
REMARK    3  A    between atoms: S1_3  and  C2_5 
REMARK    4  A    between atoms: C6_9  and  C10_13 
REMARK    5  A    between atoms: C10_13  and  C11_14 
REMARK    6  A    between atoms: C11_14  and  S2_15 
REMARK    7  A    between atoms: S2_15  and  C12_16 
REMARK    8  A    between atoms: C12_16  and  N4_18 
ROOT
HETATM    1  C2  UNL     1       2.007   6.269 -13.439  1.00  0.00     0.087 A 
HETATM    2  C3  UNL     1       0.789   6.056 -14.298  1.00  0.00     0.049 A 
HETATM    3  C4  UNL     1       0.739   4.738 -14.927  1.00  0.00    -0.057 A 
HETATM    4  C5  UNL     1       0.124   3.700 -14.258  1.00  0.00     0.014 A 
HETATM    5  C6  UNL     1       0.038   2.422 -14.796  1.00  0.00    -0.057 A 
HETATM    6  C7  UNL     1       0.585   2.194 -16.036  1.00  0.00     0.007 A 
HETATM    7  C8  UNL     1       1.193   3.238 -16.688  1.00  0.00     0.001 A 
HETATM    8  C9  UNL     1       1.293   4.512 -16.179  1.00  0.00     0.007 A 
HETATM    9 BR1  UNL     1       1.492   4.506 -14.096  1.00  0.00    -0.113 Br
HETATM   10 BR2  UNL     1       1.492   4.509 -14.096  1.00  0.00    -0.113 Br
HETATM   11  H19 UNL     1       1.609   2.977 -14.143  1.00  0.00     0.113 HD
HETATM   12  H20 UNL     1       1.610   2.976 -14.143  1.00  0.00     0.113 HD
ENDROOT
BRANCH   5  13
HETATM   13  C10 UNL     1      -0.622   1.329 -14.066  1.00  0.00     0.049 C 
BRANCH  13  14
HETATM   14  C11 UNL     1      -0.966   1.737 -12.653  1.00  0.00     0.087 C 
BRANCH  14  15
HETATM   15  S2  UNL     1      -0.064   0.682 -11.499  1.00  0.00    -0.093 SA
BRANCH  15  16
HETATM   16  C12 UNL     1      -0.367  -1.039 -11.782  1.00  0.00     0.152 C 
HETATM   17  N3  UNL     1       0.579  -1.881 -11.618  1.00  0.00    -0.278 NA
HETATM   18  H16 UNL     1       1.521  -1.557 -11.318  1.00  0.00     0.189 HD
BRANCH  16  19
HETATM   19  N4  UNL     1      -1.640  -1.488 -12.186  1.00  0.00    -0.379 N 
HETATM   20  H17 UNL     1      -2.486  -0.915 -11.972  1.00  0.00     0.158 HD
HETATM   21  H18 UNL     1      -1.694  -2.397 -12.694  1.00  0.00     0.158 HD
ENDBRANCH  16  19
ENDBRANCH  15  16
ENDBRANCH  14  15
ENDBRANCH  13  14
ENDBRANCH   5  13
BRANCH   1  22
HETATM   22  S1  UNL     1       2.027   7.917 -12.697  1.00  0.00    -0.093 SA
BRANCH  22  23
HETATM   23  C1  UNL     1       2.984   9.030 -13.686  1.00  0.00     0.152 C 
HETATM   24  N2  UNL     1       4.165   8.733 -14.052  1.00  0.00    -0.278 NA
HETATM   25  H3  UNL     1       4.711   7.887 -13.870  1.00  0.00     0.189 HD
BRANCH  23  26
HETATM   26  N1  UNL     1       2.437  10.282 -14.069  1.00  0.00    -0.379 N 
HETATM   27  H1  UNL     1       1.461  10.354 -14.437  1.00  0.00     0.158 HD
HETATM   28  H2  UNL     1       2.970  11.186 -14.004  1.00  0.00     0.158 HD
ENDBRANCH  23  26
ENDBRANCH  22  23
ENDBRANCH   1  22
TORSDOF 8
ENDMDL
MODEL 2
REMARK VINA RESULT:      -7.5      1.555      1.679
REMARK  8 active torsions:
REMARK  status: ('A' for Active; 'I' for Inactive)
REMARK    1  A    between atoms: N1_1  and  C1_2 
REMARK    2  A    between atoms: C1_2  and  S1_3 
REMARK    3  A    between atoms: S1_3  and  C2_5 
REMARK    4  A    between atoms: C6_9  and  C10_13 
REMARK    5  A    between atoms: C10_13  and  C11_14 
REMARK    6  A    between atoms: C11_14  and  S2_15 
REMARK    7  A    between atoms: S2_15  and  C12_16 
REMARK    8  A    between atoms: C12_16  and  N4_18 
ROOT
HETATM    1  C2  UNL     1       2.056   6.288 -13.538  1.00  0.00     0.087 A 
HETATM    2  C3  UNL     1       0.806   6.057 -14.345  1.00  0.00     0.049 A 
HETATM    3  C4  UNL     1       0.727   4.721 -14.932  1.00  0.00    -0.057 A 
HETATM    4  C5  UNL     1       0.132   3.708 -14.210  1.00  0.00     0.014 A 
HETATM    5  C6  UNL     1       0.019   2.415 -14.705  1.00  0.00    -0.057 A 
HETATM    6  C7  UNL     1       0.519   2.146 -15.957  1.00  0.00     0.007 A 
HETATM    7  C8  UNL     1       1.108   3.166 -16.663  1.00  0.00     0.001 A 
HETATM    8  C9  UNL     1       1.233   4.455 -16.196  1.00  0.00     0.007 A 
HETATM    9 BR1  UNL     1       1.509   4.510 -14.123  1.00  0.00    -0.113 Br
HETATM   10 BR2  UNL     1       1.509   4.512 -14.122  1.00  0.00    -0.113 Br
HETATM   11  H19 UNL     1       1.616   2.979 -14.128  1.00  0.00     0.113 HD
HETATM   12  H20 UNL     1       1.616   2.978 -14.127  1.00  0.00     0.113 HD
ENDROOT
BRANCH   5  13
HETATM   13  C10 UNL     1      -0.620   1.348 -13.919  1.00  0.00     0.049 C 
BRANCH  13  14
HETATM   14  C11 UNL     1      -0.880   1.789 -12.499  1.00  0.00     0.087 C 
BRANCH  14  15
HETATM   15  S2  UNL     1      -0.041   0.661 -11.367  1.00  0.00    -0.093 SA
BRANCH  15  16
HETATM   16  C12 UNL     1       1.207   1.472 -10.408  1.00  0.00     0.152 C 
HETATM   17  N3  UNL     1       1.576   0.966  -9.295  1.00  0.00    -0.278 NA
HETATM   18  H16 UNL     1       1.145   0.082  -8.955  1.00  0.00     0.189 HD
BRANCH  16  19
HETATM   19  N4  UNL     1       1.795   2.669 -10.861  1.00  0.00    -0.379 N 
HETATM   20  H17 UNL     1       2.743   2.945 -10.520  1.00  0.00     0.158 HD
HETATM   21  H18 UNL     1       1.252   3.252 -11.533  1.00  0.00     0.158 HD
ENDBRANCH  16  19
ENDBRANCH  15  16
ENDBRANCH  14  15
ENDBRANCH  13  14
ENDBRANCH   5  13
BRANCH   1  22
HETATM   22  S1  UNL     1       2.111   7.958 -12.848  1.00  0.00    -0.093 SA
BRANCH  22  23
HETATM   23  C1  UNL     1       3.064   9.027 -13.887  1.00  0.00     0.152 C 
HETATM   24  N2  UNL     1       4.279   8.764 -14.162  1.00  0.00    -0.278 NA
HETATM   25  H3  UNL     1       4.856   7.971 -13.871  1.00  0.00     0.189 HD
BRANCH  23  26
HETATM   26  N1  UNL     1       2.477  10.204 -14.415  1.00  0.00    -0.379 N 
HETATM   27  H1  UNL     1       1.844  10.798 -13.832  1.00  0.00     0.158 HD
HETATM   28  H2  UNL     1       2.641  10.539 -15.398  1.00  0.00     0.158 HD
ENDBRANCH  23  26
ENDBRANCH  22  23
ENDBRANCH   1  22
TORSDOF 8
ENDMDL
