MODEL 1
REMARK VINA RESULT:      -7.9      0.000      0.000
REMARK  6 active torsions:
REMARK  status: ('A' for Active; 'I' for Inactive)
REMARK    1  A    between atoms: C6_6  and  O3_23 
REMARK    2  A    between atoms: C11_12  and  C16_18 
REMARK    3  A    between atoms: C13_14  and  O2_17 
REMARK    4  A    between atoms: C16_18  and  C17_19 
REMARK    5  A    between atoms: C17_19  and  C18_20 
REMARK    6  A    between atoms: C18_20  and  C19_21 
ROOT
HETATM    1  C1  UNL     1      -2.467  -2.007  -9.364  1.00  0.00     0.038 C 
HETATM    2  C2  UNL     1      -2.192  -0.543  -8.999  1.00  0.00     0.011 C 
HETATM    3  C3  UNL     1      -2.106   0.389 -10.223  1.00  0.00     0.029 C 
HETATM    4  C4  UNL     1      -1.547  -0.364 -11.444  1.00  0.00     0.034 C 
HETATM    5  C5  UNL     1      -2.532  -1.496 -11.847  1.00  0.00     0.047 C 
HETATM    6  C6  UNL     1      -3.274  -2.145 -10.658  1.00  0.00     0.055 C 
HETATM    7  C7  UNL     1      -1.346   1.711  -9.975  1.00  0.00     0.065 C 
HETATM    8  O1  UNL     1      -1.468   2.561 -11.133  1.00  0.00    -0.340 OA
HETATM    9  C8  UNL     1      -1.218   1.977 -12.346  1.00  0.00     0.079 A 
HETATM   10  C9  UNL     1      -1.206   0.594 -12.570  1.00  0.00     0.013 A 
HETATM   11  C10 UNL     1      -0.957   2.883 -13.380  1.00  0.00     0.044 A 
HETATM   12  C11 UNL     1      -0.631   2.432 -14.661  1.00  0.00    -0.053 A 
HETATM   13  C12 UNL     1      -0.545   1.055 -14.883  1.00  0.00     0.044 A 
HETATM   14  C13 UNL     1      -0.819   0.156 -13.845  1.00  0.00     0.075 A 
HETATM   15  C14 UNL     1      -2.009   2.505  -8.835  1.00  0.00     0.046 C 
HETATM   16  C15 UNL     1       0.147   1.549  -9.633  1.00  0.00     0.046 C 
HETATM   17  C21 UNL     1      -3.584  -3.614 -10.958  1.00  0.00     0.045 C 
ENDROOT
BRANCH  12  18
HETATM   18  C16 UNL     1      -0.337   3.412 -15.769  1.00  0.00     0.039 C 
BRANCH  18  19
HETATM   19  C17 UNL     1       1.111   3.307 -16.254  1.00  0.00     0.005 C 
BRANCH  19  20
HETATM   20  C18 UNL     1       2.068   4.024 -15.298  1.00  0.00    -0.000 C 
BRANCH  20  21
HETATM   21  C19 UNL     1       1.557   5.391 -14.840  1.00  0.00    -0.005 C 
HETATM   22  C20 UNL     1       1.608   5.585 -13.332  1.00  0.00     0.005 C 
ENDBRANCH  20  21
ENDBRANCH  19  20
ENDBRANCH  18  19
ENDBRANCH  12  18
BRANCH  14  23
HETATM   23  O2  UNL     1      -0.678  -1.185 -14.083  1.00  0.00    -0.360 OA
HETATM   24  H17 UNL     1      -0.206  -1.308 -14.921  1.00  0.00     0.217 HD
ENDBRANCH  14  23
BRANCH   6  25
HETATM   25  O3  UNL     1      -4.530  -1.476 -10.489  1.00  0.00    -0.390 OA
HETATM   26  H29 UNL     1      -5.166  -2.118 -10.127  1.00  0.00     0.210 HD
ENDBRANCH   6  25
TORSDOF 6
ENDMDL
MODEL 2
REMARK VINA RESULT:      -7.6      2.800      4.377
REMARK  6 active torsions:
REMARK  status: ('A' for Active; 'I' for Inactive)
REMARK    1  A    between atoms: C6_6  and  O3_23 
REMARK    2  A    between atoms: C11_12  and  C16_18 
REMARK    3  A    between atoms: C13_14  and  O2_17 
REMARK    4  A    between atoms: C16_18  and  C17_19 
REMARK    5  A    between atoms: C17_19  and  C18_20 
REMARK    6  A    between atoms: C18_20  and  C19_21 
ROOT
HETATM    1  C1  UNL     1       0.351  -0.107 -11.133  1.00  0.00     0.038 C 
HETATM    2  C2  UNL     1       0.822   0.921 -10.097  1.00  0.00     0.011 C 
HETATM    3  C3  UNL     1       0.631   2.381 -10.550  1.00  0.00     0.029 C 
HETATM    4  C4  UNL     1       0.771   2.500 -12.079  1.00  0.00     0.034 C 
HETATM    5  C5  UNL     1      -0.365   1.695 -12.765  1.00  0.00     0.047 C 
HETATM    6  C6  UNL     1      -0.792   0.422 -12.004  1.00  0.00     0.055 C 
HETATM    7  C7  UNL     1       1.523   3.406  -9.816  1.00  0.00     0.065 C 
HETATM    8  O1  UNL     1       1.145   4.741 -10.208  1.00  0.00    -0.340 OA
HETATM    9  C8  UNL     1       1.005   4.964 -11.552  1.00  0.00     0.079 A 
HETATM   10  C9  UNL     1       0.854   3.953 -12.509  1.00  0.00     0.013 A 
HETATM   11  C10 UNL     1       1.032   6.314 -11.919  1.00  0.00     0.044 A 
HETATM   12  C11 UNL     1       0.956   6.692 -13.261  1.00  0.00    -0.053 A 
HETATM   13  C12 UNL     1       0.876   5.693 -14.233  1.00  0.00     0.044 A 
HETATM   14  C13 UNL     1       0.838   4.344 -13.856  1.00  0.00     0.075 A 
HETATM   15  C14 UNL     1       1.263   3.355  -8.300  1.00  0.00     0.046 C 
HETATM   16  C15 UNL     1       3.037   3.232 -10.043  1.00  0.00     0.046 C 
HETATM   17  C21 UNL     1      -1.279  -0.651 -12.982  1.00  0.00     0.045 C 
ENDROOT
BRANCH  12  18
HETATM   18  C16 UNL     1       0.999   8.148 -13.652  1.00  0.00     0.039 C 
BRANCH  18  19
HETATM   19  C17 UNL     1       2.198   8.461 -14.552  1.00  0.00     0.005 C 
BRANCH  19  20
HETATM   20  C18 UNL     1       2.805   9.824 -14.209  1.00  0.00    -0.000 C 
BRANCH  20  21
HETATM   21  C19 UNL     1       1.815  10.778 -13.537  1.00  0.00    -0.005 C 
HETATM   22  C20 UNL     1       2.356  11.422 -12.270  1.00  0.00     0.005 C 
ENDBRANCH  20  21
ENDBRANCH  19  20
ENDBRANCH  18  19
ENDBRANCH  12  18
BRANCH  14  23
HETATM   23  O2  UNL     1       0.810   3.388 -14.836  1.00  0.00    -0.360 OA
HETATM   24  H17 UNL     1       0.448   3.778 -15.646  1.00  0.00     0.217 HD
ENDBRANCH  14  23
BRANCH   6  25
HETATM   25  O3  UNL     1      -1.899   0.751 -11.156  1.00  0.00    -0.390 OA
HETATM   26  H29 UNL     1      -2.513   1.307 -11.666  1.00  0.00     0.210 HD
ENDBRANCH   6  25
TORSDOF 6
ENDMDL
