MODEL 1
REMARK VINA RESULT:      -5.7      0.000      0.000
REMARK  23 active torsions:
REMARK  status: ('A' for Active; 'I' for Inactive)
REMARK    1  A    between atoms: C1_1  and  C2_2 
REMARK    2  A    between atoms: C1_1  and  C18_18 
REMARK    3  A    between atoms: C2_2  and  C3_3 
REMARK    4  A    between atoms: C3_3  and  C4_4 
REMARK    5  A    between atoms: C4_4  and  C5_5 
REMARK    6  A    between atoms: C5_5  and  C6_6 
REMARK    7  A    between atoms: C6_6  and  C7_7 
REMARK    8  A    between atoms: C7_7  and  C8_8 
REMARK    9  A    between atoms: C8_8  and  C9_9 
REMARK   10  A    between atoms: C9_9  and  C10_10 
REMARK   11  A    between atoms: C10_10  and  C11_11 
REMARK   12  A    between atoms: C11_11  and  C12_12 
REMARK   13  A    between atoms: C12_12  and  C13_13 
REMARK   14  A    between atoms: C13_13  and  C14_14 
REMARK   15  A    between atoms: C14_14  and  C15_15 
REMARK   16  A    between atoms: C15_15  and  C16_16 
REMARK   17  A    between atoms: C16_16  and  C17_17 
REMARK   18  A    between atoms: C17_17  and  C20_20 
REMARK   19  A    between atoms: C20_20  and  C21_21 
REMARK   20  A    between atoms: C21_21  and  C22_22 
REMARK   21  A    between atoms: C22_22  and  C23_23 
REMARK   22  A    between atoms: C23_23  and  C24_24 
REMARK   23  A    between atoms: C24_24  and  O2_26 
ROOT
HETATM    1  C12 UNL     1      -0.784   0.467 -13.358  1.00  0.00     0.000 C 
ENDROOT
BRANCH   1   2
HETATM    2  C11 UNL     1      -1.135  -0.019 -11.945  1.00  0.00     0.000 C 
BRANCH   2   3
HETATM    3  C10 UNL     1      -0.642   0.900 -10.824  1.00  0.00     0.000 C 
BRANCH   3   4
HETATM    4  C9  UNL     1       0.805   0.662 -10.368  1.00  0.00     0.000 C 
BRANCH   4   5
HETATM    5  C8  UNL     1       1.612   1.926 -10.055  1.00  0.00     0.000 C 
BRANCH   5   6
HETATM    6  C7  UNL     1       1.677   2.972 -11.174  1.00  0.00     0.000 C 
BRANCH   6   7
HETATM    7  C6  UNL     1       1.820   4.431 -10.727  1.00  0.00     0.000 C 
BRANCH   7   8
HETATM    8  C5  UNL     1       0.496   5.072 -10.299  1.00  0.00     0.000 C 
BRANCH   8   9
HETATM    9  C4  UNL     1      -0.690   4.614 -11.157  1.00  0.00     0.000 C 
BRANCH   9  10
HETATM   10  C3  UNL     1      -1.958   4.279 -10.361  1.00  0.00     0.000 C 
BRANCH  10  11
HETATM   11  C2  UNL     1      -2.152   5.135  -9.107  1.00  0.00     0.000 C 
BRANCH  11  12
HETATM   12  C1  UNL     1      -2.473   4.314  -7.851  1.00  0.00    -0.000 C 
BRANCH  12  13
HETATM   13  C18 UNL     1      -1.825   2.929  -7.843  1.00  0.00    -0.005 C 
HETATM   14  C19 UNL     1      -0.403   2.987  -7.302  1.00  0.00     0.005 C 
ENDBRANCH  12  13
ENDBRANCH  11  12
ENDBRANCH  10  11
ENDBRANCH   9  10
ENDBRANCH   8   9
ENDBRANCH   7   8
ENDBRANCH   6   7
ENDBRANCH   5   6
ENDBRANCH   4   5
ENDBRANCH   3   4
ENDBRANCH   2   3
ENDBRANCH   1   2
BRANCH   1  15
HETATM   15  C13 UNL     1      -0.851   1.989 -13.547  1.00  0.00     0.000 C 
BRANCH  15  16
HETATM   16  C14 UNL     1      -0.833   2.436 -15.009  1.00  0.00     0.000 C 
BRANCH  16  17
HETATM   17  C15 UNL     1       0.438   2.024 -15.761  1.00  0.00     0.000 C 
BRANCH  17  18
HETATM   18  C16 UNL     1       1.166   3.139 -16.520  1.00  0.00     0.000 C 
BRANCH  18  19
HETATM   19  C17 UNL     1       2.325   3.756 -15.737  1.00  0.00     0.000 C 
BRANCH  19  20
HETATM   20  C20 UNL     1       1.891   4.566 -14.508  1.00  0.00     0.000 C 
BRANCH  20  21
HETATM   21  C21 UNL     1       0.871   5.670 -14.804  1.00  0.00     0.001 C 
BRANCH  21  22
HETATM   22  C22 UNL     1       0.872   6.775 -13.740  1.00  0.00     0.010 C 
BRANCH  22  23
HETATM   23  C23 UNL     1       1.806   7.926 -14.095  1.00  0.00     0.110 C 
BRANCH  23  24
HETATM   24  C24 UNL     1       3.065   7.920 -13.275  1.00  0.00     0.139 C 
HETATM   25  O1  UNL     1       3.229   7.350 -12.210  1.00  0.00    -0.650 OA
BRANCH  24  26
HETATM   26  O2  UNL     1       4.062   8.623 -13.843  1.00  0.00    -0.776 OA
HETATM   27  H48 UNL     1       3.628   9.450 -14.139  1.00  0.00     0.167 HD
ENDBRANCH  24  26
ENDBRANCH  23  24
ENDBRANCH  22  23
ENDBRANCH  21  22
ENDBRANCH  20  21
ENDBRANCH  19  20
ENDBRANCH  18  19
ENDBRANCH  17  18
ENDBRANCH  16  17
ENDBRANCH  15  16
ENDBRANCH   1  15
TORSDOF 23
ENDMDL
MODEL 2
REMARK VINA RESULT:      -5.5      1.100      2.511
REMARK  23 active torsions:
REMARK  status: ('A' for Active; 'I' for Inactive)
REMARK    1  A    between atoms: C1_1  and  C2_2 
REMARK    2  A    between atoms: C1_1  and  C18_18 
REMARK    3  A    between atoms: C2_2  and  C3_3 
REMARK    4  A    between atoms: C3_3  and  C4_4 
REMARK    5  A    between atoms: C4_4  and  C5_5 
REMARK    6  A    between atoms: C5_5  and  C6_6 
REMARK    7  A    between atoms: C6_6  and  C7_7 
REMARK    8  A    between atoms: C7_7  and  C8_8 
REMARK    9  A    between atoms: C8_8  and  C9_9 
REMARK   10  A    between atoms: C9_9  and  C10_10 
REMARK   11  A    between atoms: C10_10  and  C11_11 
REMARK   12  A    between atoms: C11_11  and  C12_12 
REMARK   13  A    between atoms: C12_12  and  C13_13 
REMARK   14  A    between atoms: C13_13  and  C14_14 
REMARK   15  A    between atoms: C14_14  and  C15_15 
REMARK   16  A    between atoms: C15_15  and  C16_16 
REMARK   17  A    between atoms: C16_16  and  C17_17 
REMARK   18  A    between atoms: C17_17  and  C20_20 
REMARK   19  A    between atoms: C20_20  and  C21_21 
REMARK   20  A    between atoms: C21_21  and  C22_22 
REMARK   21  A    between atoms: C22_22  and  C23_23 
REMARK   22  A    between atoms: C23_23  and  C24_24 
REMARK   23  A    between atoms: C24_24  and  O2_26 
ROOT
HETATM    1  C12 UNL     1      -0.047   2.280 -12.720  1.00  0.00     0.000 C 
ENDROOT
BRANCH   1   2
HETATM    2  C11 UNL     1      -0.419   1.053 -11.877  1.00  0.00     0.000 C 
BRANCH   2   3
HETATM    3  C10 UNL     1      -1.891   1.001 -11.459  1.00  0.00     0.000 C 
BRANCH   3   4
HETATM    4  C9  UNL     1      -2.147   1.081  -9.947  1.00  0.00     0.000 C 
BRANCH   4   5
HETATM    5  C8  UNL     1      -0.901   1.289  -9.079  1.00  0.00     0.000 C 
BRANCH   5   6
HETATM    6  C7  UNL     1      -0.879   2.571  -8.239  1.00  0.00     0.000 C 
BRANCH   6   7
HETATM    7  C6  UNL     1      -2.205   3.332  -8.133  1.00  0.00     0.000 C 
BRANCH   7   8
HETATM    8  C5  UNL     1      -2.151   4.741  -8.736  1.00  0.00     0.000 C 
BRANCH   8   9
HETATM    9  C4  UNL     1      -1.991   4.728 -10.261  1.00  0.00     0.000 C 
BRANCH   9  10
HETATM   10  C3  UNL     1      -0.630   5.231 -10.761  1.00  0.00     0.000 C 
BRANCH  10  11
HETATM   11  C2  UNL     1       0.236   5.871  -9.674  1.00  0.00     0.000 C 
BRANCH  11  12
HETATM   12  C1  UNL     1       1.734   5.592  -9.843  1.00  0.00    -0.000 C 
BRANCH  12  13
HETATM   13  C18 UNL     1       2.036   4.432 -10.794  1.00  0.00    -0.005 C 
HETATM   14  C19 UNL     1       2.415   3.173 -10.026  1.00  0.00     0.005 C 
ENDBRANCH  12  13
ENDBRANCH  11  12
ENDBRANCH  10  11
ENDBRANCH   9  10
ENDBRANCH   8   9
ENDBRANCH   7   8
ENDBRANCH   6   7
ENDBRANCH   5   6
ENDBRANCH   4   5
ENDBRANCH   3   4
ENDBRANCH   2   3
ENDBRANCH   1   2
BRANCH   1  15
HETATM   15  C13 UNL     1      -0.974   2.542 -13.915  1.00  0.00     0.000 C 
BRANCH  15  16
HETATM   16  C14 UNL     1      -0.303   2.358 -15.276  1.00  0.00     0.000 C 
BRANCH  16  17
HETATM   17  C15 UNL     1      -0.332   3.618 -16.149  1.00  0.00     0.000 C 
BRANCH  17  18
HETATM   18  C16 UNL     1       1.014   4.318 -16.368  1.00  0.00     0.000 C 
BRANCH  18  19
HETATM   19  C17 UNL     1       1.991   4.145 -15.204  1.00  0.00     0.000 C 
BRANCH  19  20
HETATM   20  C20 UNL     1       2.125   5.384 -14.309  1.00  0.00     0.000 C 
BRANCH  20  21
HETATM   21  C21 UNL     1       0.853   6.233 -14.206  1.00  0.00     0.001 C 
BRANCH  21  22
HETATM   22  C22 UNL     1       1.002   7.402 -13.225  1.00  0.00     0.010 C 
BRANCH  22  23
HETATM   23  C23 UNL     1       1.735   8.590 -13.838  1.00  0.00     0.110 C 
BRANCH  23  24
HETATM   24  C24 UNL     1       3.039   8.879 -13.152  1.00  0.00     0.139 C 
HETATM   25  O1  UNL     1       3.176   9.384 -12.050  1.00  0.00    -0.650 OA
BRANCH  24  26
HETATM   26  O2  UNL     1       4.107   8.508 -13.880  1.00  0.00    -0.776 OA
HETATM   27  H48 UNL     1       3.718   8.163 -14.710  1.00  0.00     0.167 HD
ENDBRANCH  24  26
ENDBRANCH  23  24
ENDBRANCH  22  23
ENDBRANCH  21  22
ENDBRANCH  20  21
ENDBRANCH  19  20
ENDBRANCH  18  19
ENDBRANCH  17  18
ENDBRANCH  16  17
ENDBRANCH  15  16
ENDBRANCH   1  15
TORSDOF 23
ENDMDL
