MODEL 1
REMARK VINA RESULT:      -6.5      0.000      0.000
REMARK  14 active torsions:
REMARK  status: ('A' for Active; 'I' for Inactive)
REMARK    1  A    between atoms: C2_2  and  O3_20 
REMARK    2  A    between atoms: C3_4  and  C10_12 
REMARK    3  A    between atoms: C4_5  and  C6_8 
REMARK    4  A    between atoms: C5_6  and  O2_7 
REMARK    5  A    between atoms: C6_8  and  C7_9 
REMARK    6  A    between atoms: C8_10  and  C9_11 
REMARK    7  A    between atoms: C9_11  and  C18_22 
REMARK    8  A    between atoms: C11_13  and  C12_14 
REMARK    9  A    between atoms: C12_14  and  C13_15 
REMARK   10  A    between atoms: C12_14  and  O4_21 
REMARK   11  A    between atoms: C13_15  and  C14_16 
REMARK   12  A    between atoms: C14_16  and  C15_17 
REMARK   13  A    between atoms: C15_17  and  C16_18 
REMARK   14  A    between atoms: C18_22  and  O6_24 
ROOT
HETATM    1  C1  UNL     1       3.278   5.427  -9.522  1.00  0.00     0.092 C 
HETATM    2  C2  UNL     1       2.885   3.967  -9.360  1.00  0.00     0.260 C 
HETATM    3  O1  UNL     1       1.484   3.780  -9.345  1.00  0.00    -0.352 OA
HETATM    4  C3  UNL     1       0.735   4.383 -10.411  1.00  0.00     0.154 C 
HETATM    5  C4  UNL     1       1.594   5.174 -11.427  1.00  0.00     0.051 C 
HETATM    6  C5  UNL     1       2.538   6.120 -10.667  1.00  0.00     0.130 C 
ENDROOT
BRANCH   4   7
HETATM    7  C10 UNL     1      -0.106   3.309 -11.075  1.00  0.00     0.004 C 
HETATM    8  C11 UNL     1       0.292   2.468 -12.048  1.00  0.00     0.003 C 
BRANCH   8   9
HETATM    9  C12 UNL     1      -0.533   1.401 -12.719  1.00  0.00     0.140 C 
BRANCH   9  10
HETATM   10  C13 UNL     1      -0.675   1.631 -14.233  1.00  0.00     0.036 C 
BRANCH  10  11
HETATM   11  C14 UNL     1      -0.496   3.094 -14.670  1.00  0.00     0.003 C 
BRANCH  11  12
HETATM   12  C15 UNL     1      -0.203   3.231 -16.169  1.00  0.00    -0.000 C 
BRANCH  12  13
HETATM   13  C16 UNL     1       1.117   3.938 -16.488  1.00  0.00    -0.005 C 
HETATM   14  C17 UNL     1       2.303   3.448 -15.675  1.00  0.00     0.005 C 
ENDBRANCH  12  13
ENDBRANCH  11  12
ENDBRANCH  10  11
ENDBRANCH   9  10
BRANCH   9  15
HETATM   15  O4  UNL     1      -1.823   1.296 -12.123  1.00  0.00    -0.392 OA
HETATM   16  H29 UNL     1      -1.801   0.527 -11.530  1.00  0.00     0.210 HD
ENDBRANCH   9  15
ENDBRANCH   8   9
ENDBRANCH   4   7
BRANCH   5  17
HETATM   17  C6  UNL     1       0.812   5.867 -12.571  1.00  0.00     0.037 C 
BRANCH  17  18
HETATM   18  C7  UNL     1       1.586   6.295 -13.789  1.00  0.00    -0.030 C 
HETATM   19  C8  UNL     1       1.918   7.544 -14.158  1.00  0.00    -0.020 C 
BRANCH  19  20
HETATM   20  C9  UNL     1       1.594   8.832 -13.458  1.00  0.00     0.136 C 
BRANCH  20  21
HETATM   21  C18 UNL     1       2.776   9.280 -12.633  1.00  0.00     0.142 C 
HETATM   22  O5  UNL     1       2.738   9.796 -11.528  1.00  0.00    -0.650 OA
BRANCH  21  23
HETATM   23  O6  UNL     1       3.960   9.017 -13.231  1.00  0.00    -0.776 OA
HETATM   24  H30 UNL     1       4.499   9.814 -13.037  1.00  0.00     0.167 HD
ENDBRANCH  21  23
ENDBRANCH  20  21
ENDBRANCH  19  20
ENDBRANCH  17  18
ENDBRANCH   5  17
BRANCH   2  25
HETATM   25  O3  UNL     1       3.479   3.168 -10.373  1.00  0.00    -0.371 OA
HETATM   26  H28 UNL     1       2.949   2.354 -10.387  1.00  0.00     0.212 HD
ENDBRANCH   2  25
BRANCH   6  27
HETATM   27  O2  UNL     1       1.831   7.223 -10.100  1.00  0.00    -0.395 OA
HETATM   28  H16 UNL     1       2.199   7.386  -9.206  1.00  0.00     0.210 HD
ENDBRANCH   6  27
TORSDOF 14
ENDMDL
MODEL 2
REMARK VINA RESULT:      -6.2      2.399      7.176
REMARK  14 active torsions:
REMARK  status: ('A' for Active; 'I' for Inactive)
REMARK    1  A    between atoms: C2_2  and  O3_20 
REMARK    2  A    between atoms: C3_4  and  C10_12 
REMARK    3  A    between atoms: C4_5  and  C6_8 
REMARK    4  A    between atoms: C5_6  and  O2_7 
REMARK    5  A    between atoms: C6_8  and  C7_9 
REMARK    6  A    between atoms: C8_10  and  C9_11 
REMARK    7  A    between atoms: C9_11  and  C18_22 
REMARK    8  A    between atoms: C11_13  and  C12_14 
REMARK    9  A    between atoms: C12_14  and  C13_15 
REMARK   10  A    between atoms: C12_14  and  O4_21 
REMARK   11  A    between atoms: C13_15  and  C14_16 
REMARK   12  A    between atoms: C14_16  and  C15_17 
REMARK   13  A    between atoms: C15_17  and  C16_18 
REMARK   14  A    between atoms: C18_22  and  O6_24 
ROOT
HETATM    1  C1  UNL     1       1.045   2.151 -16.398  1.00  0.00     0.092 C 
HETATM    2  C2  UNL     1       1.879   3.419 -16.505  1.00  0.00     0.260 C 
HETATM    3  O1  UNL     1       1.124   4.588 -16.260  1.00  0.00    -0.352 OA
HETATM    4  C3  UNL     1       0.330   4.612 -15.063  1.00  0.00     0.154 C 
HETATM    5  C4  UNL     1       0.415   3.320 -14.214  1.00  0.00     0.051 C 
HETATM    6  C5  UNL     1       0.200   2.099 -15.124  1.00  0.00     0.130 C 
ENDROOT
BRANCH   4   7
HETATM    7  C10 UNL     1       0.696   5.852 -14.269  1.00  0.00     0.004 C 
HETATM    8  C11 UNL     1       1.898   6.458 -14.239  1.00  0.00     0.003 C 
BRANCH   8   9
HETATM    9  C12 UNL     1       2.276   7.686 -13.453  1.00  0.00     0.140 C 
BRANCH   9  10
HETATM   10  C13 UNL     1       1.554   7.762 -12.096  1.00  0.00     0.036 C 
BRANCH  10  11
HETATM   11  C14 UNL     1       2.355   7.181 -10.920  1.00  0.00     0.003 C 
BRANCH  11  12
HETATM   12  C15 UNL     1       1.839   5.806 -10.477  1.00  0.00    -0.000 C 
BRANCH  12  13
HETATM   13  C16 UNL     1       2.691   4.630 -10.965  1.00  0.00    -0.005 C 
HETATM   14  C17 UNL     1       3.008   3.599  -9.895  1.00  0.00     0.005 C 
ENDBRANCH  12  13
ENDBRANCH  11  12
ENDBRANCH  10  11
ENDBRANCH   9  10
BRANCH   9  15
HETATM   15  O4  UNL     1       2.025   8.873 -14.199  1.00  0.00    -0.392 OA
HETATM   16  H29 UNL     1       2.866   9.356 -14.256  1.00  0.00     0.210 HD
ENDBRANCH   9  15
ENDBRANCH   8   9
ENDBRANCH   4   7
BRANCH   5  17
HETATM   17  C6  UNL     1      -0.456   3.300 -12.933  1.00  0.00     0.037 C 
BRANCH  17  18
HETATM   18  C7  UNL     1      -0.003   2.430 -11.792  1.00  0.00    -0.030 C 
HETATM   19  C8  UNL     1      -0.366   1.164 -11.525  1.00  0.00    -0.020 C 
BRANCH  19  20
HETATM   20  C9  UNL     1      -1.324   0.296 -12.289  1.00  0.00     0.136 C 
BRANCH  20  21
HETATM   21  C18 UNL     1      -0.572  -0.820 -12.972  1.00  0.00     0.142 C 
HETATM   22  O5  UNL     1       0.343  -1.476 -12.502  1.00  0.00    -0.650 OA
BRANCH  21  23
HETATM   23  O6  UNL     1      -1.041  -1.081 -14.213  1.00  0.00    -0.776 OA
HETATM   24  H30 UNL     1      -1.508  -0.253 -14.462  1.00  0.00     0.167 HD
ENDBRANCH  21  23
ENDBRANCH  20  21
ENDBRANCH  19  20
ENDBRANCH  17  18
ENDBRANCH   5  17
BRANCH   2  25
HETATM   25  O3  UNL     1       2.998   3.362 -15.634  1.00  0.00    -0.371 OA
HETATM   26  H28 UNL     1       2.998   2.453 -15.291  1.00  0.00     0.212 HD
ENDBRANCH   2  25
BRANCH   6  27
HETATM   27  O2  UNL     1      -1.163   1.982 -15.532  1.00  0.00    -0.395 OA
HETATM   28  H16 UNL     1      -1.726   2.203 -14.760  1.00  0.00     0.210 HD
ENDBRANCH   6  27
TORSDOF 14
ENDMDL
