MODEL 1
REMARK VINA RESULT:      -6.8      0.000      0.000
REMARK  18 active torsions:
REMARK  status: ('A' for Active; 'I' for Inactive)
REMARK    1  A    between atoms: C1_1  and  C2_2 
REMARK    2  A    between atoms: C3_3  and  C4_4 
REMARK    3  A    between atoms: C3_3  and  C5_5 
REMARK    4  A    between atoms: C5_5  and  C6_6 
REMARK    5  A    between atoms: C5_5  and  O2_23 
REMARK    6  A    between atoms: C7_7  and  C8_8 
REMARK    7  A    between atoms: C9_9  and  C10_10 
REMARK    8  A    between atoms: C11_11  and  C12_12 
REMARK    9  A    between atoms: C12_12  and  C13_13 
REMARK   10  A    between atoms: C12_12  and  O3_24 
REMARK   11  A    between atoms: C13_13  and  C14_14 
REMARK   12  A    between atoms: C14_14  and  C22_25 
REMARK   13  A    between atoms: C15_15  and  C16_16 
REMARK   14  A    between atoms: C16_16  and  C17_17 
REMARK   15  A    between atoms: C16_16  and  O1_18 
REMARK   16  A    between atoms: C17_17  and  C18_19 
REMARK   17  A    between atoms: C19_20  and  C20_21 
REMARK   18  A    between atoms: C22_25  and  O5_27 
ROOT
HETATM    1  C5  UNL     1      -0.682   1.669 -14.924  1.00  0.00     0.144 C 
ENDROOT
BRANCH   1   2
HETATM    2  C3  UNL     1      -0.578   2.908 -15.838  1.00  0.00     0.062 C 
BRANCH   2   3
HETATM    3  C4  UNL     1       0.789   3.050 -16.459  1.00  0.00    -0.024 C 
HETATM    4  C1  UNL     1       1.840   3.763 -16.027  1.00  0.00    -0.004 C 
BRANCH   4   5
HETATM    5  C2  UNL     1       1.912   4.574 -14.833  1.00  0.00    -0.002 C 
HETATM    6  C15 UNL     1       1.033   5.560 -14.585  1.00  0.00     0.005 C 
BRANCH   6   7
HETATM    7  C16 UNL     1       1.009   6.468 -13.379  1.00  0.00     0.144 C 
BRANCH   7   8
HETATM    8  C17 UNL     1       0.947   7.961 -13.756  1.00  0.00     0.062 C 
BRANCH   8   9
HETATM    9  C18 UNL     1       2.227   8.487 -14.349  1.00  0.00    -0.028 C 
HETATM   10  C19 UNL     1       2.631   9.769 -14.415  1.00  0.00    -0.031 C 
BRANCH  10  11
HETATM   11  C20 UNL     1       1.924  10.976 -13.867  1.00  0.00     0.022 C 
HETATM   12  C21 UNL     1       2.322  11.246 -12.424  1.00  0.00     0.009 C 
ENDBRANCH  10  11
ENDBRANCH   8   9
ENDBRANCH   7   8
BRANCH   7  13
HETATM   13  O1  UNL     1       2.165   6.248 -12.569  1.00  0.00    -0.391 OA
HETATM   14  H22 UNL     1       2.906   6.082 -13.176  1.00  0.00     0.210 HD
ENDBRANCH   7  13
ENDBRANCH   6   7
ENDBRANCH   4   5
ENDBRANCH   2   3
ENDBRANCH   1   2
BRANCH   1  15
HETATM   15  C6  UNL     1      -0.756   1.923 -13.441  1.00  0.00     0.005 C 
HETATM   16  C7  UNL     1      -1.106   3.059 -12.819  1.00  0.00    -0.002 C 
BRANCH  16  17
HETATM   17  C8  UNL     1      -1.170   3.166 -11.379  1.00  0.00    -0.000 C 
HETATM   18  C9  UNL     1      -1.898   4.100 -10.743  1.00  0.00    -0.000 C 
BRANCH  18  19
HETATM   19  C10 UNL     1      -1.990   4.163  -9.303  1.00  0.00    -0.002 C 
HETATM   20  C11 UNL     1      -1.408   5.067  -8.496  1.00  0.00     0.004 C 
BRANCH  20  21
HETATM   21  C12 UNL     1      -0.496   6.202  -8.858  1.00  0.00     0.141 C 
BRANCH  21  22
HETATM   22  C13 UNL     1       0.841   6.139  -8.096  1.00  0.00     0.045 C 
BRANCH  22  23
HETATM   23  C14 UNL     1       1.496   4.751  -8.038  1.00  0.00     0.114 C 
BRANCH  23  24
HETATM   24  C22 UNL     1       2.361   4.471  -9.248  1.00  0.00     0.258 C 
HETATM   25  O4  UNL     1       1.965   4.485 -10.411  1.00  0.00    -0.265 OA
BRANCH  24  26
HETATM   26  O5  UNL     1       3.636   4.194  -8.855  1.00  0.00    -0.326 OA
HETATM   27  C23 UNL     1       3.917   4.557  -7.500  1.00  0.00     0.213 C 
ENDBRANCH  24  26
ENDBRANCH  23  24
ENDBRANCH  22  23
ENDBRANCH  21  22
BRANCH  21  28
HETATM   28  O3  UNL     1      -1.207   7.395  -8.573  1.00  0.00    -0.392 OA
HETATM   29  H31 UNL     1      -2.139   7.152  -8.406  1.00  0.00     0.210 HD
ENDBRANCH  21  28
ENDBRANCH  20  21
ENDBRANCH  18  19
ENDBRANCH  16  17
ENDBRANCH   1  15
BRANCH   1  30
HETATM   30  O2  UNL     1       0.444   0.810 -15.122  1.00  0.00    -0.391 OA
HETATM   31  H30 UNL     1       1.238   1.344 -14.962  1.00  0.00     0.210 HD
ENDBRANCH   1  30
TORSDOF 18
ENDMDL
MODEL 2
REMARK VINA RESULT:      -6.7      1.481      2.416
REMARK  18 active torsions:
REMARK  status: ('A' for Active; 'I' for Inactive)
REMARK    1  A    between atoms: C1_1  and  C2_2 
REMARK    2  A    between atoms: C3_3  and  C4_4 
REMARK    3  A    between atoms: C3_3  and  C5_5 
REMARK    4  A    between atoms: C5_5  and  C6_6 
REMARK    5  A    between atoms: C5_5  and  O2_23 
REMARK    6  A    between atoms: C7_7  and  C8_8 
REMARK    7  A    between atoms: C9_9  and  C10_10 
REMARK    8  A    between atoms: C11_11  and  C12_12 
REMARK    9  A    between atoms: C12_12  and  C13_13 
REMARK   10  A    between atoms: C12_12  and  O3_24 
REMARK   11  A    between atoms: C13_13  and  C14_14 
REMARK   12  A    between atoms: C14_14  and  C22_25 
REMARK   13  A    between atoms: C15_15  and  C16_16 
REMARK   14  A    between atoms: C16_16  and  C17_17 
REMARK   15  A    between atoms: C16_16  and  O1_18 
REMARK   16  A    between atoms: C17_17  and  C18_19 
REMARK   17  A    between atoms: C19_20  and  C20_21 
REMARK   18  A    between atoms: C22_25  and  O5_27 
ROOT
HETATM    1  C5  UNL     1      -0.325   1.776 -15.067  1.00  0.00     0.144 C 
ENDROOT
BRANCH   1   2
HETATM    2  C3  UNL     1       1.130   2.076 -15.486  1.00  0.00     0.062 C 
BRANCH   2   3
HETATM    3  C4  UNL     1       1.206   3.046 -16.639  1.00  0.00    -0.024 C 
HETATM    4  C1  UNL     1       0.932   4.360 -16.652  1.00  0.00    -0.004 C 
BRANCH   4   5
HETATM    5  C2  UNL     1       0.499   5.172 -15.538  1.00  0.00    -0.002 C 
HETATM    6  C15 UNL     1       1.340   5.546 -14.558  1.00  0.00     0.005 C 
BRANCH   6   7
HETATM    7  C16 UNL     1       1.003   6.388 -13.350  1.00  0.00     0.144 C 
BRANCH   7   8
HETATM    8  C17 UNL     1       1.001   7.899 -13.656  1.00  0.00     0.062 C 
BRANCH   8   9
HETATM    9  C18 UNL     1       2.277   8.389 -14.287  1.00  0.00    -0.028 C 
HETATM   10  C19 UNL     1       2.684   9.664 -14.423  1.00  0.00    -0.031 C 
BRANCH  10  11
HETATM   11  C20 UNL     1       1.986  10.901 -13.932  1.00  0.00     0.022 C 
HETATM   12  C21 UNL     1       2.330  11.195 -12.481  1.00  0.00     0.009 C 
ENDBRANCH  10  11
ENDBRANCH   8   9
ENDBRANCH   7   8
BRANCH   7  13
HETATM   13  O1  UNL     1       1.932   6.136 -12.295  1.00  0.00    -0.391 OA
HETATM   14  H22 UNL     1       1.467   6.321 -11.461  1.00  0.00     0.210 HD
ENDBRANCH   7  13
ENDBRANCH   6   7
ENDBRANCH   4   5
ENDBRANCH   2   3
ENDBRANCH   1   2
BRANCH   1  15
HETATM   15  C6  UNL     1      -0.905   2.629 -13.969  1.00  0.00     0.005 C 
HETATM   16  C7  UNL     1      -0.386   2.868 -12.755  1.00  0.00    -0.002 C 
BRANCH  16  17
HETATM   17  C8  UNL     1      -1.029   3.737 -11.795  1.00  0.00    -0.000 C 
HETATM   18  C9  UNL     1      -1.536   3.297 -10.631  1.00  0.00    -0.000 C 
BRANCH  18  19
HETATM   19  C10 UNL     1      -2.133   4.186  -9.661  1.00  0.00    -0.002 C 
HETATM   20  C11 UNL     1      -1.532   5.204  -9.021  1.00  0.00     0.004 C 
BRANCH  20  21
HETATM   21  C12 UNL     1      -0.105   5.658  -9.108  1.00  0.00     0.141 C 
BRANCH  21  22
HETATM   22  C13 UNL     1       0.490   5.971  -7.723  1.00  0.00     0.045 C 
BRANCH  22  23
HETATM   23  C14 UNL     1       0.865   7.442  -7.489  1.00  0.00     0.114 C 
BRANCH  23  24
HETATM   24  C22 UNL     1      -0.279   8.243  -6.905  1.00  0.00     0.258 C 
HETATM   25  O4  UNL     1      -1.332   8.491  -7.490  1.00  0.00    -0.265 OA
BRANCH  24  26
HETATM   26  O5  UNL     1       0.034   8.653  -5.644  1.00  0.00    -0.326 OA
HETATM   27  C23 UNL     1       1.322   9.267  -5.537  1.00  0.00     0.213 C 
ENDBRANCH  24  26
ENDBRANCH  23  24
ENDBRANCH  22  23
ENDBRANCH  21  22
BRANCH  21  28
HETATM   28  O3  UNL     1      -0.096   6.796  -9.953  1.00  0.00    -0.392 OA
HETATM   29  H31 UNL     1       0.549   7.432  -9.585  1.00  0.00     0.210 HD
ENDBRANCH  21  28
ENDBRANCH  20  21
ENDBRANCH  18  19
ENDBRANCH  16  17
ENDBRANCH   1  15
BRANCH   1  30
HETATM   30  O2  UNL     1      -0.446   0.423 -14.622  1.00  0.00    -0.391 OA
HETATM   31  H30 UNL     1       0.115  -0.116 -15.204  1.00  0.00     0.210 HD
ENDBRANCH   1  30
TORSDOF 18
ENDMDL
