MODEL 1
REMARK VINA RESULT:      -8.3      0.000      0.000
REMARK  7 active torsions:
REMARK  status: ('A' for Active; 'I' for Inactive)
REMARK    1  A    between atoms: C12_13  and  C15_17 
REMARK    2  A    between atoms: C14_15  and  O2_16 
REMARK    3  A    between atoms: C15_17  and  C16_18 
REMARK    4  A    between atoms: C16_18  and  C17_19 
REMARK    5  A    between atoms: C17_19  and  C18_20 
REMARK    6  A    between atoms: C18_20  and  C21_23 
REMARK    7  A    between atoms: C21_23  and  C22_24 
ROOT
HETATM    1  C1  UNL     1      -2.840  -1.395  -9.194  1.00  0.00    -0.024 C 
HETATM    2  C2  UNL     1      -2.159  -0.080  -8.955  1.00  0.00     0.035 C 
HETATM    3  C3  UNL     1      -2.037   0.758 -10.239  1.00  0.00     0.032 C 
HETATM    4  C4  UNL     1      -1.463  -0.110 -11.384  1.00  0.00     0.035 C 
HETATM    5  C5  UNL     1      -2.462  -1.263 -11.665  1.00  0.00     0.043 C 
HETATM    6  C6  UNL     1      -3.011  -1.927 -10.417  1.00  0.00    -0.087 C 
HETATM    7  C7  UNL     1      -3.746  -3.219 -10.632  1.00  0.00     0.043 C 
HETATM    8  C8  UNL     1      -1.239   2.068 -10.083  1.00  0.00     0.065 C 
HETATM    9  O1  UNL     1      -1.324   2.829 -11.305  1.00  0.00    -0.340 OA
HETATM   10  C9  UNL     1      -1.106   2.147 -12.471  1.00  0.00     0.079 A 
HETATM   11  C10 UNL     1      -1.130   0.750 -12.590  1.00  0.00     0.013 A 
HETATM   12  C11 UNL     1      -0.848   2.965 -13.576  1.00  0.00     0.044 A 
HETATM   13  C12 UNL     1      -0.547   2.411 -14.823  1.00  0.00    -0.053 A 
HETATM   14  C13 UNL     1      -0.506   1.021 -14.943  1.00  0.00     0.044 A 
HETATM   15  C14 UNL     1      -0.779   0.209 -13.837  1.00  0.00     0.075 A 
HETATM   16  C19 UNL     1       0.243   1.886  -9.709  1.00  0.00     0.046 C 
HETATM   17  C20 UNL     1      -1.885   2.974  -9.020  1.00  0.00     0.046 C 
ENDROOT
BRANCH  13  18
HETATM   18  C15 UNL     1      -0.288   3.298 -16.015  1.00  0.00     0.039 C 
BRANCH  18  19
HETATM   19  C16 UNL     1       1.187   3.279 -16.419  1.00  0.00     0.005 C 
BRANCH  19  20
HETATM   20  C17 UNL     1       2.033   4.133 -15.472  1.00  0.00     0.000 C 
BRANCH  20  21
HETATM   21  C18 UNL     1       1.316   5.438 -15.114  1.00  0.00     0.000 C 
BRANCH  21  22
HETATM   22  C21 UNL     1       2.077   6.280 -14.085  1.00  0.00    -0.000 C 
BRANCH  22  23
HETATM   23  C22 UNL     1       1.551   7.707 -13.907  1.00  0.00    -0.005 C 
HETATM   24  C23 UNL     1       2.490   8.792 -14.405  1.00  0.00     0.005 C 
ENDBRANCH  22  23
ENDBRANCH  21  22
ENDBRANCH  20  21
ENDBRANCH  19  20
ENDBRANCH  18  19
ENDBRANCH  13  18
BRANCH  15  25
HETATM   25  O2  UNL     1      -0.674  -1.147 -13.979  1.00  0.00    -0.360 OA
HETATM   26  H13 UNL     1      -1.470  -1.568 -13.613  1.00  0.00     0.217 HD
ENDBRANCH  15  25
TORSDOF 7
ENDMDL
MODEL 2
REMARK VINA RESULT:      -8.0      1.988      7.191
REMARK  7 active torsions:
REMARK  status: ('A' for Active; 'I' for Inactive)
REMARK    1  A    between atoms: C12_13  and  C15_17 
REMARK    2  A    between atoms: C14_15  and  O2_16 
REMARK    3  A    between atoms: C15_17  and  C16_18 
REMARK    4  A    between atoms: C16_18  and  C17_19 
REMARK    5  A    between atoms: C17_19  and  C18_20 
REMARK    6  A    between atoms: C18_20  and  C21_23 
REMARK    7  A    between atoms: C21_23  and  C22_24 
ROOT
HETATM    1  C1  UNL     1       2.163   7.373 -13.607  1.00  0.00    -0.024 C 
HETATM    2  C2  UNL     1       1.734   6.321 -14.587  1.00  0.00     0.035 C 
HETATM    3  C3  UNL     1       1.009   5.147 -13.905  1.00  0.00     0.032 C 
HETATM    4  C4  UNL     1       1.829   4.656 -12.689  1.00  0.00     0.035 C 
HETATM    5  C5  UNL     1       1.918   5.816 -11.663  1.00  0.00     0.043 C 
HETATM    6  C6  UNL     1       2.222   7.168 -12.280  1.00  0.00    -0.087 C 
HETATM    7  C7  UNL     1       2.601   8.256 -11.318  1.00  0.00     0.043 C 
HETATM    8  C8  UNL     1       0.650   3.978 -14.842  1.00  0.00     0.065 C 
HETATM    9  O1  UNL     1      -0.151   3.017 -14.124  1.00  0.00    -0.340 OA
HETATM   10  C9  UNL     1       0.289   2.656 -12.880  1.00  0.00     0.079 A 
HETATM   11  C10 UNL     1       1.246   3.366 -12.139  1.00  0.00     0.013 A 
HETATM   12  C11 UNL     1      -0.298   1.490 -12.378  1.00  0.00     0.044 A 
HETATM   13  C12 UNL     1       0.095   0.963 -11.145  1.00  0.00    -0.053 A 
HETATM   14  C13 UNL     1       1.091   1.624 -10.424  1.00  0.00     0.044 A 
HETATM   15  C14 UNL     1       1.664   2.798 -10.925  1.00  0.00     0.075 A 
HETATM   16  C19 UNL     1       1.855   3.254 -15.470  1.00  0.00     0.046 C 
HETATM   17  C20 UNL     1      -0.260   4.458 -15.987  1.00  0.00     0.046 C 
ENDROOT
BRANCH  13  18
HETATM   18  C15 UNL     1      -0.555  -0.283 -10.600  1.00  0.00     0.039 C 
BRANCH  18  19
HETATM   19  C16 UNL     1      -1.243  -0.018  -9.260  1.00  0.00     0.005 C 
BRANCH  19  20
HETATM   20  C17 UNL     1      -2.302   1.079  -9.385  1.00  0.00     0.000 C 
BRANCH  20  21
HETATM   21  C18 UNL     1      -2.211   2.072  -8.222  1.00  0.00     0.000 C 
BRANCH  21  22
HETATM   22  C21 UNL     1      -1.534   3.391  -8.608  1.00  0.00    -0.000 C 
BRANCH  22  23
HETATM   23  C22 UNL     1      -1.902   3.919  -9.998  1.00  0.00    -0.005 C 
HETATM   24  C23 UNL     1      -2.439   5.339 -10.010  1.00  0.00     0.005 C 
ENDBRANCH  22  23
ENDBRANCH  21  22
ENDBRANCH  20  21
ENDBRANCH  19  20
ENDBRANCH  18  19
ENDBRANCH  13  18
BRANCH  15  25
HETATM   25  O2  UNL     1       2.676   3.386 -10.218  1.00  0.00    -0.360 OA
HETATM   26  H13 UNL     1       2.506   4.341 -10.155  1.00  0.00     0.217 HD
ENDBRANCH  15  25
TORSDOF 7
ENDMDL
