MODEL 1
REMARK VINA RESULT:      -7.6      0.000      0.000
REMARK  16 active torsions:
REMARK  status: ('A' for Active; 'I' for Inactive)
REMARK    1  A    between atoms: C1_1  and  O2_7 
REMARK    2  A    between atoms: C2_2  and  C7_9 
REMARK    3  A    between atoms: C3_3  and  C6_8 
REMARK    4  A    between atoms: C4_4  and  O1_6 
REMARK    5  A    between atoms: C6_8  and  C8_10 
REMARK    6  A    between atoms: C9_11  and  C11_13 
REMARK    7  A    between atoms: C10_12  and  C15_17 
REMARK    8  A    between atoms: C11_13  and  C12_14 
REMARK    9  A    between atoms: C11_13  and  O3_25 
REMARK   10  A    between atoms: C12_14  and  C13_15 
REMARK   11  A    between atoms: C13_15  and  C14_16 
REMARK   12  A    between atoms: C15_17  and  C16_18 
REMARK   13  A    between atoms: C16_18  and  C17_19 
REMARK   14  A    between atoms: C17_19  and  C24_27 
REMARK   15  A    between atoms: C19_21  and  C23_26 
REMARK   16  A    between atoms: C24_27  and  O5_32 
ROOT
HETATM    1  C1  UNL     1      -0.848  -0.705 -12.964  1.00  0.00     0.128 C 
HETATM    2  C2  UNL     1      -1.025   0.830 -12.940  1.00  0.00     0.043 C 
HETATM    3  C3  UNL     1      -0.685   1.211 -11.475  1.00  0.00     0.028 C 
HETATM    4  C4  UNL     1       0.502   0.277 -11.190  1.00  0.00     0.125 C 
HETATM    5  C5  UNL     1       0.117  -1.057 -11.829  1.00  0.00     0.064 C 
ENDROOT
BRANCH   2   6
HETATM    6  C7  UNL     1      -0.160   1.634 -13.898  1.00  0.00    -0.021 C 
HETATM    7  C9  UNL     1      -0.427   1.986 -15.167  1.00  0.00     0.001 C 
BRANCH   7   8
HETATM    8  C11 UNL     1       0.525   2.739 -16.050  1.00  0.00     0.141 C 
BRANCH   8   9
HETATM    9  C12 UNL     1       1.579   3.529 -15.272  1.00  0.00     0.040 C 
BRANCH   9  10
HETATM   10  C13 UNL     1       1.173   4.983 -15.025  1.00  0.00     0.041 C 
BRANCH  10  11
HETATM   11  C14 UNL     1       1.169   5.314 -13.553  1.00  0.00    -0.057 A 
HETATM   12  C18 UNL     1       1.665   4.395 -12.616  1.00  0.00     0.023 A 
HETATM   13  C19 UNL     1       1.682   4.700 -11.244  1.00  0.00     0.048 A 
HETATM   14  C20 UNL     1       1.211   5.953 -10.822  1.00  0.00     0.016 A 
HETATM   15  C21 UNL     1       0.722   6.873 -11.747  1.00  0.00     0.001 A 
HETATM   16  C22 UNL     1       0.702   6.556 -13.107  1.00  0.00     0.007 A 
BRANCH  13  17
HETATM   17  C23 UNL     1       2.241   3.717 -10.246  1.00  0.00     0.417 C 
HETATM   18  F1  UNL     1       3.329   4.192  -9.576  1.00  0.00    -0.166 F 
HETATM   19  F2  UNL     1       2.640   2.544 -10.815  1.00  0.00    -0.166 F 
HETATM   20  F3  UNL     1       1.333   3.380  -9.288  1.00  0.00    -0.166 F 
ENDBRANCH  13  17
ENDBRANCH  10  11
ENDBRANCH   9  10
ENDBRANCH   8   9
BRANCH   8  21
HETATM   21  O3  UNL     1      -0.278   3.652 -16.796  1.00  0.00    -0.392 OA
HETATM   22  H30 UNL     1      -0.466   3.236 -17.654  1.00  0.00     0.210 HD
ENDBRANCH   8  21
ENDBRANCH   7   8
ENDBRANCH   2   6
BRANCH   1  23
HETATM   23  O2  UNL     1      -2.101  -1.346 -12.715  1.00  0.00    -0.395 OA
HETATM   24  H8  UNL     1      -2.728  -0.659 -12.427  1.00  0.00     0.210 HD
ENDBRANCH   1  23
BRANCH   3  25
HETATM   25  C6  UNL     1      -1.900   1.011 -10.539  1.00  0.00     0.034 C 
BRANCH  25  26
HETATM   26  C8  UNL     1      -1.849   1.884  -9.311  1.00  0.00    -0.030 C 
HETATM   27  C10 UNL     1      -1.869   3.226  -9.258  1.00  0.00    -0.031 C 
BRANCH  27  28
HETATM   28  C15 UNL     1      -2.011   4.181 -10.409  1.00  0.00     0.027 C 
BRANCH  28  29
HETATM   29  C16 UNL     1      -2.453   5.587  -9.984  1.00  0.00     0.013 C 
BRANCH  29  30
HETATM   30  C17 UNL     1      -2.425   5.842  -8.478  1.00  0.00     0.111 C 
BRANCH  30  31
HETATM   31  C24 UNL     1      -1.277   6.736  -8.082  1.00  0.00     0.258 C 
HETATM   32  O4  UNL     1      -1.305   7.958  -8.129  1.00  0.00    -0.265 OA
BRANCH  31  33
HETATM   33  O5  UNL     1      -0.220   5.991  -7.658  1.00  0.00    -0.326 OA
HETATM   34  C25 UNL     1      -0.344   5.514  -6.316  1.00  0.00     0.213 C 
ENDBRANCH  31  33
ENDBRANCH  30  31
ENDBRANCH  29  30
ENDBRANCH  28  29
ENDBRANCH  27  28
ENDBRANCH  25  26
ENDBRANCH   3  25
BRANCH   4  35
HETATM   35  O1  UNL     1       0.804   0.133  -9.817  1.00  0.00    -0.395 OA
HETATM   36  H7  UNL     1       0.793   1.018  -9.416  1.00  0.00     0.210 HD
ENDBRANCH   4  35
TORSDOF 16
ENDMDL
MODEL 2
REMARK VINA RESULT:      -7.4      2.345      5.803
REMARK  16 active torsions:
REMARK  status: ('A' for Active; 'I' for Inactive)
REMARK    1  A    between atoms: C1_1  and  O2_7 
REMARK    2  A    between atoms: C2_2  and  C7_9 
REMARK    3  A    between atoms: C3_3  and  C6_8 
REMARK    4  A    between atoms: C4_4  and  O1_6 
REMARK    5  A    between atoms: C6_8  and  C8_10 
REMARK    6  A    between atoms: C9_11  and  C11_13 
REMARK    7  A    between atoms: C10_12  and  C15_17 
REMARK    8  A    between atoms: C11_13  and  C12_14 
REMARK    9  A    between atoms: C11_13  and  O3_25 
REMARK   10  A    between atoms: C12_14  and  C13_15 
REMARK   11  A    between atoms: C13_15  and  C14_16 
REMARK   12  A    between atoms: C15_17  and  C16_18 
REMARK   13  A    between atoms: C16_18  and  C17_19 
REMARK   14  A    between atoms: C17_19  and  C24_27 
REMARK   15  A    between atoms: C19_21  and  C23_26 
REMARK   16  A    between atoms: C24_27  and  O5_32 
ROOT
HETATM    1  C1  UNL     1       2.391   7.473 -13.616  1.00  0.00     0.128 C 
HETATM    2  C2  UNL     1       2.117   5.957 -13.489  1.00  0.00     0.043 C 
HETATM    3  C3  UNL     1       1.762   5.777 -11.990  1.00  0.00     0.028 C 
HETATM    4  C4  UNL     1       0.912   7.031 -11.730  1.00  0.00     0.125 C 
HETATM    5  C5  UNL     1       1.631   8.156 -12.475  1.00  0.00     0.064 C 
ENDROOT
BRANCH   2   6
HETATM    6  C7  UNL     1       1.006   5.386 -14.357  1.00  0.00    -0.021 C 
HETATM    7  C9  UNL     1       1.098   4.461 -15.327  1.00  0.00     0.001 C 
BRANCH   7   8
HETATM    8  C11 UNL     1      -0.058   4.004 -16.166  1.00  0.00     0.141 C 
BRANCH   8   9
HETATM    9  C12 UNL     1      -0.944   2.969 -15.468  1.00  0.00     0.040 C 
BRANCH   9  10
HETATM   10  C13 UNL     1      -0.146   1.961 -14.641  1.00  0.00     0.041 C 
BRANCH  10  11
HETATM   11  C14 UNL     1      -0.764   1.748 -13.281  1.00  0.00    -0.057 A 
HETATM   12  C18 UNL     1      -0.973   2.833 -12.417  1.00  0.00     0.023 A 
HETATM   13  C19 UNL     1      -1.563   2.648 -11.155  1.00  0.00     0.048 A 
HETATM   14  C20 UNL     1      -1.961   1.358 -10.775  1.00  0.00     0.016 A 
HETATM   15  C21 UNL     1      -1.763   0.276 -11.630  1.00  0.00     0.001 A 
HETATM   16  C22 UNL     1      -1.167   0.470 -12.878  1.00  0.00     0.007 A 
BRANCH  13  17
HETATM   17  C23 UNL     1      -1.808   3.825 -10.243  1.00  0.00     0.417 C 
HETATM   18  F1  UNL     1      -0.698   4.591 -10.046  1.00  0.00    -0.166 F 
HETATM   19  F2  UNL     1      -2.231   3.461  -8.999  1.00  0.00    -0.166 F 
HETATM   20  F3  UNL     1      -2.759   4.669 -10.731  1.00  0.00    -0.166 F 
ENDBRANCH  13  17
ENDBRANCH  10  11
ENDBRANCH   9  10
ENDBRANCH   8   9
BRANCH   8  21
HETATM   21  O3  UNL     1       0.517   3.408 -17.328  1.00  0.00    -0.392 OA
HETATM   22  H30 UNL     1      -0.176   3.375 -18.008  1.00  0.00     0.210 HD
ENDBRANCH   8  21
ENDBRANCH   7   8
ENDBRANCH   2   6
BRANCH   1  23
HETATM   23  O2  UNL     1       3.787   7.734 -13.457  1.00  0.00    -0.395 OA
HETATM   24  H8  UNL     1       3.942   8.659 -13.717  1.00  0.00     0.210 HD
ENDBRANCH   1  23
BRANCH   3  25
HETATM   25  C6  UNL     1       3.032   5.668 -11.113  1.00  0.00     0.034 C 
BRANCH  25  26
HETATM   26  C8  UNL     1       2.784   4.968  -9.801  1.00  0.00    -0.030 C 
HETATM   27  C10 UNL     1       2.444   3.683  -9.608  1.00  0.00    -0.031 C 
BRANCH  27  28
HETATM   28  C15 UNL     1       2.289   2.615 -10.653  1.00  0.00     0.027 C 
BRANCH  28  29
HETATM   29  C16 UNL     1       1.551   1.369 -10.147  1.00  0.00     0.013 C 
BRANCH  29  30
HETATM   30  C17 UNL     1       1.085   1.444  -8.694  1.00  0.00     0.111 C 
BRANCH  30  31
HETATM   31  C24 UNL     1       0.558   0.119  -8.205  1.00  0.00     0.258 C 
HETATM   32  O4  UNL     1       0.302  -0.833  -8.930  1.00  0.00    -0.265 OA
BRANCH  31  33
HETATM   33  O5  UNL     1       0.419   0.134  -6.851  1.00  0.00    -0.326 OA
HETATM   34  C25 UNL     1       1.656   0.212  -6.139  1.00  0.00     0.213 C 
ENDBRANCH  31  33
ENDBRANCH  30  31
ENDBRANCH  29  30
ENDBRANCH  28  29
ENDBRANCH  27  28
ENDBRANCH  25  26
ENDBRANCH   3  25
BRANCH   4  35
HETATM   35  O1  UNL     1       0.739   7.336 -10.361  1.00  0.00    -0.395 OA
HETATM   36  H7  UNL     1       0.936   8.279 -10.240  1.00  0.00     0.210 HD
ENDBRANCH   4  35
TORSDOF 16
ENDMDL
