REMARK  7 active torsions:
REMARK  status: ('A' for Active; 'I' for Inactive)
REMARK    1  A    between atoms: C1_1  and  O3_9 
REMARK    2  A    between atoms: C5_5  and  C6_6 
REMARK    3  A    between atoms: C5_5  and  O1_7 
REMARK    4  A    between atoms: C6_6  and  O2_8 
REMARK    5  A    between atoms: O6_12  and  P2_19 
REMARK    6  A    between atoms: P1_15  and  O9_18 
REMARK    7  A    between atoms: P2_19  and  O12_22 
ROOT
HETATM    1  C1  UNL     1      27.272  31.658  40.004  1.00  0.00     0.180 A 
HETATM    2  C2  UNL     1      27.329  30.723  38.763  1.00  0.00     0.181 A 
HETATM    3  C3  UNL     1      28.638  30.878  37.933  1.00  0.00     0.198 A 
HETATM    4  C4  UNL     1      29.854  31.024  38.866  1.00  0.00     0.198 A 
HETATM    5  C5  UNL     1      29.715  32.308  39.729  1.00  0.00     0.181 A 
HETATM    6  C6  UNL     1      28.259  32.817  39.869  1.00  0.00     0.180 A 
HETATM    7  O4  UNL     1      27.113  29.371  39.230  1.00  0.00    -0.390 OA
HETATM    8  O5  UNL     1      28.659  32.037  37.096  1.00  0.00    -0.279 OA
HETATM    9  O6  UNL     1      30.004  29.907  39.734  1.00  0.00    -0.279 OA
HETATM   10 NA1  UNL     1      28.689  31.180  38.619  1.00  0.00     0.000 Na
HETATM   11 NA2  UNL     1      28.689  31.180  38.619  1.00  0.00     0.000 Na
HETATM   12  P1  UNL     1      27.486  32.249  36.013  1.00  0.00     0.406 P 
HETATM   13  O7  UNL     1      26.339  32.986  36.635  1.00  0.00    -0.624 OA
HETATM   14  O8  UNL     1      27.331  31.007  35.188  1.00  0.00    -0.624 OA
HETATM   15  H10 UNL     1      27.895  28.827  38.975  1.00  0.00     0.210 HD
ENDROOT
BRANCH   9  16
HETATM   16  P2  UNL     1      30.630  28.528  39.178  1.00  0.00     0.406 P 
HETATM   17  O10 UNL     1      31.852  28.145  39.961  1.00  0.00    -0.624 OA
HETATM   18  O11 UNL     1      29.566  27.540  38.807  1.00  0.00    -0.624 OA
BRANCH  16  19
HETATM   19  O12 UNL     1      31.260  29.094  37.804  1.00  0.00    -0.300 OA
HETATM   20  H12 UNL     1      31.960  29.692  38.132  1.00  0.00     0.223 HD
ENDBRANCH  16  19
ENDBRANCH   9  16
BRANCH   5  21
HETATM   21  O1  UNL     1      30.474  33.402  39.154  1.00  0.00    -0.390 OA
HETATM   22  H7  UNL     1      29.812  33.949  38.683  1.00  0.00     0.210 HD
ENDBRANCH   5  21
BRANCH   1  23
HETATM   23  O3  UNL     1      27.554  30.910  41.207  1.00  0.00    -0.390 OA
HETATM   24  H9  UNL     1      27.828  30.024  40.884  1.00  0.00     0.210 HD
ENDBRANCH   1  23
BRANCH   6  25
HETATM   25  O2  UNL     1      28.184  33.735  40.981  1.00  0.00    -0.390 OA
HETATM   26  H8  UNL     1      27.925  33.175  41.736  1.00  0.00     0.210 HD
ENDBRANCH   6  25
BRANCH  12  27
HETATM   27  O9  UNL     1      28.271  33.251  35.028  1.00  0.00    -0.300 OA
HETATM   28  H11 UNL     1      29.198  33.080  35.267  1.00  0.00     0.223 HD
ENDBRANCH  12  27
TORSDOF 7
