REMARK  9 active torsions:
REMARK  status: ('A' for Active; 'I' for Inactive)
REMARK    1  A    between atoms: C2_2  and  O2_8 
REMARK    2  A    between atoms: C3_3  and  O1_7 
REMARK    3  A    between atoms: O1_7  and  C8_10 
REMARK    4  A    between atoms: C8_10  and  C9_11 
REMARK    5  A    between atoms: C9_11  and  C10_12 
REMARK    6  A    between atoms: C10_12  and  C11_13 
REMARK    7  A    between atoms: C14_17  and  C16_20 
REMARK       I    between atoms: C16_20  and  N2_21 
REMARK    8  A    between atoms: N2_21  and  C17_23 
REMARK    9  A    between atoms: C17_23  and  C18_24 
ROOT
HETATM    1  C1  UNL     1      30.759  27.306  35.360  1.00  0.00     0.040 A 
HETATM    2  C2  UNL     1      30.179  28.565  35.158  1.00  0.00     0.103 A 
HETATM    3  C3  UNL     1      30.016  29.418  36.262  1.00  0.00     0.129 A 
HETATM    4  C4  UNL     1      30.380  28.994  37.545  1.00  0.00     0.082 A 
HETATM    5  C5  UNL     1      30.953  27.737  37.742  1.00  0.00    -0.005 A 
HETATM    6  C6  UNL     1      31.146  26.895  36.644  1.00  0.00     0.017 A 
HETATM    7  N1  UNL     1      30.177  29.829  38.653  1.00  0.00    -0.320 N 
HETATM    8  C13 UNL     1      30.521  29.492  39.935  1.00  0.00     0.261 A 
HETATM    9  C14 UNL     1      31.138  28.147  40.151  1.00  0.00     0.100 A 
HETATM   10  C15 UNL     1      31.334  27.334  39.095  1.00  0.00     0.036 A 
HETATM   11  O3  UNL     1      30.326  30.275  40.865  1.00  0.00    -0.267 OA
HETATM   12  H17 UNL     1      29.739  30.731  38.504  1.00  0.00     0.169 HD
ENDROOT
BRANCH   9  13
HETATM   13  C16 UNL     1      31.557  27.638  41.494  1.00  0.00     0.257 C 
HETATM   14  N2  UNL     1      32.262  28.520  42.270  1.00  0.00    -0.352 N 
HETATM   15  H19 UNL     1      32.510  29.422  41.873  1.00  0.00     0.163 HD
HETATM   16  O4  UNL     1      31.285  26.501  41.863  1.00  0.00    -0.267 OA
BRANCH  14  17
HETATM   17  C17 UNL     1      32.853  28.152  43.534  1.00  0.00     0.161 C 
BRANCH  17  18
HETATM   18  C18 UNL     1      34.275  27.688  43.349  1.00  0.00    -0.038 A 
HETATM   19  C19 UNL     1      34.555  26.313  43.167  1.00  0.00     0.012 A 
HETATM   20  C20 UNL     1      35.865  25.865  42.970  1.00  0.00     0.040 A 
HETATM   21  C21 UNL     1      36.870  26.806  42.956  1.00  0.00     0.105 A 
HETATM   22  C22 UNL     1      36.608  28.144  43.122  1.00  0.00     0.105 A 
HETATM   23  O5  UNL     1      38.193  26.552  42.772  1.00  0.00    -0.323 OA
HETATM   24  C23 UNL     1      35.326  28.618  43.311  1.00  0.00     0.048 A 
HETATM   25  O6  UNL     1      37.738  28.903  43.073  1.00  0.00    -0.323 OA
HETATM   26  C24 UNL     1      38.737  27.886  42.857  1.00  0.00     0.352 A 
ENDBRANCH  17  18
ENDBRANCH  14  17
ENDBRANCH   9  13
BRANCH   3  27
HETATM   27  O1  UNL     1      29.426  30.652  36.121  1.00  0.00    -0.346 OA
BRANCH  27  28
HETATM   28  C8  UNL     1      28.010  30.529  35.972  1.00  0.00     0.176 C 
BRANCH  28  29
HETATM   29  C9  UNL     1      27.312  31.373  37.038  1.00  0.00     0.027 C 
BRANCH  29  30
HETATM   30  C10 UNL     1      26.667  30.518  38.136  1.00  0.00     0.002 C 
BRANCH  30  31
HETATM   31  C11 UNL     1      26.998  31.009  39.547  1.00  0.00    -0.004 C 
HETATM   32  C12 UNL     1      26.730  29.973  40.624  1.00  0.00     0.005 C 
ENDBRANCH  30  31
ENDBRANCH  29  30
ENDBRANCH  28  29
ENDBRANCH  27  28
ENDBRANCH   3  27
BRANCH   2  33
HETATM   33  O2  UNL     1      29.771  29.052  33.943  1.00  0.00    -0.353 OA
HETATM   34  C7  UNL     1      29.200  28.113  33.036  1.00  0.00     0.210 C 
ENDBRANCH   2  33
TORSDOF 9
