REMARK  10 active torsions:
REMARK  status: ('A' for Active; 'I' for Inactive)
REMARK    1  A    between atoms: C3_3  and  C15_19 
REMARK    2  A    between atoms: C6_6  and  C7_7 
REMARK    3  A    between atoms: C7_7  and  O1_8 
REMARK    4  A    between atoms: O1_8  and  N1_9 
REMARK    5  A    between atoms: N2_10  and  O2_11 
REMARK    6  A    between atoms: O2_11  and  C8_12 
REMARK    7  A    between atoms: C8_12  and  C9_13 
REMARK    8  A    between atoms: C12_16  and  C16_20 
REMARK    9  A    between atoms: C15_19  and  O4_22 
REMARK   10  A    between atoms: C16_20  and  O6_24 
ROOT
HETATM    1  N1  UNL     1      30.906  24.971  38.534  1.00  0.00     0.002 NA
HETATM    2  N2  UNL     1      31.091  24.788  39.756  1.00  0.00     0.002 NA
ENDROOT
BRANCH   1   3
HETATM    3  O1  UNL     1      30.156  26.110  38.203  1.00  0.00    -0.233 OA
BRANCH   3   4
HETATM    4  C7  UNL     1      31.036  27.058  37.603  1.00  0.00     0.244 C 
BRANCH   4   5
HETATM    5  C6  UNL     1      30.780  28.458  38.120  1.00  0.00    -0.032 A 
HETATM    6  C1  UNL     1      30.772  28.754  39.493  1.00  0.00     0.010 A 
HETATM    7  C2  UNL     1      30.498  30.049  39.942  1.00  0.00     0.019 A 
HETATM    8  C3  UNL     1      30.209  31.064  39.026  1.00  0.00     0.037 A 
HETATM    9  C4  UNL     1      30.201  30.776  37.657  1.00  0.00     0.019 A 
HETATM   10  C5  UNL     1      30.481  29.482  37.210  1.00  0.00     0.010 A 
BRANCH   8  11
HETATM   11  C15 UNL     1      29.896  32.448  39.458  1.00  0.00     0.176 C 
HETATM   12  O3  UNL     1      29.049  32.767  40.271  1.00  0.00    -0.646 OA
BRANCH  11  13
HETATM   13  O4  UNL     1      30.657  33.372  38.846  1.00  0.00    -0.773 OA
HETATM   14  H13 UNL     1      31.504  32.909  38.680  1.00  0.00     0.167 HD
ENDBRANCH  11  13
ENDBRANCH   8  11
ENDBRANCH   4   5
ENDBRANCH   3   4
ENDBRANCH   1   3
BRANCH   2  15
HETATM   15  O2  UNL     1      30.510  25.743  40.607  1.00  0.00    -0.233 OA
BRANCH  15  16
HETATM   16  C8  UNL     1      30.806  25.403  41.958  1.00  0.00     0.244 C 
BRANCH  16  17
HETATM   17  C9  UNL     1      32.032  26.154  42.413  1.00  0.00    -0.032 A 
HETATM   18  C10 UNL     1      33.313  25.611  42.230  1.00  0.00     0.010 A 
HETATM   19  C11 UNL     1      34.450  26.317  42.630  1.00  0.00     0.019 A 
HETATM   20  C12 UNL     1      34.321  27.582  43.216  1.00  0.00     0.037 A 
HETATM   21  C13 UNL     1      33.047  28.134  43.394  1.00  0.00     0.019 A 
HETATM   22  C14 UNL     1      31.912  27.425  42.995  1.00  0.00     0.010 A 
BRANCH  20  23
HETATM   23  C16 UNL     1      35.497  28.376  43.645  1.00  0.00     0.176 C 
HETATM   24  O5  UNL     1      36.159  28.187  44.648  1.00  0.00    -0.646 OA
BRANCH  23  25
HETATM   25  O6  UNL     1      35.791  29.375  42.793  1.00  0.00    -0.773 OA
HETATM   26  H14 UNL     1      34.956  29.516  42.301  1.00  0.00     0.167 HD
ENDBRANCH  23  25
ENDBRANCH  20  23
ENDBRANCH  16  17
ENDBRANCH  15  16
ENDBRANCH   2  15
TORSDOF 10
