REMARK  3 active torsions:
REMARK  status: ('A' for Active; 'I' for Inactive)
REMARK    1  A    between atoms: C4_5  and  N2_8 
REMARK       I    between atoms: N3_11  and  C10_14 
REMARK       I    between atoms: C10_14  and  N4_16 
REMARK    2  A    between atoms: N4_16  and  C11_17 
REMARK    3  A    between atoms: C14_20  and  C17_23 
ROOT
HETATM    1  N2  UNL     1      27.317  30.251  39.214  1.00  0.00    -0.361 N 
HETATM    2  C6  UNL     1      27.412  29.371  40.393  1.00  0.00     0.144 C 
HETATM    3  C7  UNL     1      28.873  29.265  40.867  1.00  0.00     0.147 C 
HETATM    4  N3  UNL     1      29.790  28.805  39.814  1.00  0.00    -0.331 N 
HETATM    5  C8  UNL     1      29.240  28.796  38.453  1.00  0.00     0.147 C 
HETATM    6  C9  UNL     1      28.346  30.020  38.165  1.00  0.00     0.144 C 
HETATM    7  C10 UNL     1      31.059  28.275  40.021  1.00  0.00     0.323 C 
HETATM    8  O1  UNL     1      31.679  27.747  39.102  1.00  0.00    -0.247 OA
HETATM    9  N4  UNL     1      31.528  28.411  41.309  1.00  0.00    -0.309 N 
HETATM   10  H12 UNL     1      31.013  29.044  41.903  1.00  0.00     0.170 HD
ENDROOT
BRANCH   9  11
HETATM   11  C11 UNL     1      32.734  27.920  41.851  1.00  0.00     0.036 A 
HETATM   12  C12 UNL     1      33.041  28.290  43.163  1.00  0.00     0.030 A 
HETATM   13  C13 UNL     1      34.218  27.844  43.778  1.00  0.00     0.010 A 
HETATM   14  C14 UNL     1      35.128  27.009  43.105  1.00  0.00    -0.051 A 
HETATM   15  C15 UNL     1      34.801  26.644  41.789  1.00  0.00     0.010 A 
HETATM   16  C16 UNL     1      33.620  27.088  41.174  1.00  0.00     0.030 A 
BRANCH  14  17
HETATM   17  C17 UNL     1      36.410  26.534  43.807  1.00  0.00    -0.024 C 
HETATM   18  C18 UNL     1      37.711  26.910  43.057  1.00  0.00     0.019 C 
HETATM   19  C19 UNL     1      36.388  24.994  43.940  1.00  0.00     0.019 C 
HETATM   20  C20 UNL     1      36.497  27.167  45.214  1.00  0.00     0.019 C 
ENDBRANCH  14  17
ENDBRANCH   9  11
BRANCH   1  21
HETATM   21  C4  UNL     1      26.009  30.449  38.739  1.00  0.00     0.147 A 
HETATM   22  N1  UNL     1      24.992  30.265  39.618  1.00  0.00    -0.242 NA
HETATM   23  C3  UNL     1      23.719  30.453  39.198  1.00  0.00     0.119 A 
HETATM   24  C2  UNL     1      23.379  30.832  37.915  1.00  0.00     0.021 A 
HETATM   25  C1  UNL     1      24.409  31.036  37.008  1.00  0.00     0.029 A 
HETATM   26  C5  UNL     1      25.735  30.857  37.416  1.00  0.00     0.079 A 
HETATM   27 CL1  UNL     1      26.963  31.226  36.254  1.00  0.00    -0.080 Cl
ENDBRANCH   1  21
TORSDOF 3
