REMARK  10 active torsions:
REMARK  status: ('A' for Active; 'I' for Inactive)
REMARK    1  A    between atoms: C2_2  and  O1_7 
REMARK    2  A    between atoms: C3_3  and  O3_9 
REMARK    3  A    between atoms: C4_4  and  O2_8 
REMARK    4  A    between atoms: C5_5  and  C6_6 
REMARK    5  A    between atoms: O4_10  and  P1_16 
REMARK    6  A    between atoms: O5_11  and  P2_20 
REMARK    7  A    between atoms: O6_12  and  P3_24 
REMARK    8  A    between atoms: P1_16  and  O9_19 
REMARK    9  A    between atoms: P2_20  and  O12_23 
REMARK   10  A    between atoms: P3_24  and  O15_27 
ROOT
HETATM    1  C1  UNL     1      31.388  27.623  41.623  1.00  0.00     0.198 A 
HETATM    2  C2  UNL     1      30.933  26.165  41.860  1.00  0.00     0.181 A 
HETATM    3  C3  UNL     1      31.414  25.285  40.702  1.00  0.00     0.180 A 
HETATM    4  C4  UNL     1      30.886  25.795  39.346  1.00  0.00     0.181 A 
HETATM    5  C5  UNL     1      31.151  27.303  39.080  1.00  0.00     0.198 A 
HETATM    6  C6  UNL     1      30.699  28.120  40.328  1.00  0.00     0.199 A 
HETATM    7  O4  UNL     1      30.369  27.767  37.963  1.00  0.00    -0.279 OA
HETATM    8  O5  UNL     1      30.934  29.522  40.176  1.00  0.00    -0.279 OA
HETATM    9  O6  UNL     1      32.805  27.712  41.444  1.00  0.00    -0.279 OA
HETATM   10 NA1  UNL     1      31.234  27.295  39.960  1.00  0.00     0.000 Na
HETATM   11 NA2  UNL     1      31.234  27.295  39.960  1.00  0.00     0.000 Na
HETATM   12 NA3  UNL     1      31.234  27.295  39.960  1.00  0.00     0.000 Na
ENDROOT
BRANCH   7  13
HETATM   13  P1  UNL     1      30.650  27.206  36.480  1.00  0.00     0.406 P 
HETATM   14  O7  UNL     1      30.471  28.339  35.499  1.00  0.00    -0.624 OA
HETATM   15  O8  UNL     1      30.060  25.850  36.256  1.00  0.00    -0.624 OA
BRANCH  13  16
HETATM   16  O9  UNL     1      32.246  27.064  36.619  1.00  0.00    -0.300 OA
HETATM   17  H10 UNL     1      32.390  26.116  36.762  1.00  0.00     0.223 HD
ENDBRANCH  13  16
ENDBRANCH   7  13
BRANCH   4  18
HETATM   18  O2  UNL     1      31.464  24.908  38.364  1.00  0.00    -0.390 OA
HETATM   19  H8  UNL     1      30.694  24.500  37.885  1.00  0.00     0.210 HD
ENDBRANCH   4  18
BRANCH   2  20
HETATM   20  O1  UNL     1      31.349  25.647  43.131  1.00  0.00    -0.390 OA
HETATM   21  H7  UNL     1      32.341  25.570  43.108  1.00  0.00     0.210 HD
ENDBRANCH   2  20
BRANCH   3  22
HETATM   22  O3  UNL     1      30.943  23.922  40.845  1.00  0.00    -0.390 OA
HETATM   23  H9  UNL     1      30.083  24.050  41.295  1.00  0.00     0.210 HD
ENDBRANCH   3  22
BRANCH   8  24
HETATM   24  P2  UNL     1      29.723  30.477  39.671  1.00  0.00     0.406 P 
HETATM   25  O10 UNL     1      28.408  29.739  39.666  1.00  0.00    -0.624 OA
HETATM   26  O11 UNL     1      29.849  31.835  40.311  1.00  0.00    -0.624 OA
BRANCH  24  27
HETATM   27  O12 UNL     1      30.170  30.624  38.130  1.00  0.00    -0.300 OA
HETATM   28  H11 UNL     1      31.146  30.579  38.112  1.00  0.00     0.223 HD
ENDBRANCH  24  27
ENDBRANCH   8  24
BRANCH   9  29
HETATM   29  P3  UNL     1      33.773  27.604  42.726  1.00  0.00     0.406 P 
HETATM   30  O13 UNL     1      34.296  26.197  42.831  1.00  0.00    -0.624 OA
HETATM   31  O14 UNL     1      33.211  28.352  43.899  1.00  0.00    -0.624 OA
BRANCH  29  32
HETATM   32  O15 UNL     1      34.957  28.549  42.176  1.00  0.00    -0.300 OA
HETATM   33  H12 UNL     1      35.042  28.265  41.250  1.00  0.00     0.223 HD
ENDBRANCH  29  32
ENDBRANCH   9  29
TORSDOF 10
