REMARK  2 active torsions:
REMARK  status: ('A' for Active; 'I' for Inactive)
REMARK    1  A    between atoms: C5_5  and  C7_7 
REMARK    2  A    between atoms: C11_12  and  C15_17 
ROOT
HETATM    1  C1  UNL     1      33.143  26.682  42.245  1.00  0.00    -0.028 A 
HETATM    2  C2  UNL     1      33.787  26.840  41.007  1.00  0.00     0.016 A 
HETATM    3  C3  UNL     1      35.122  26.435  40.880  1.00  0.00     0.025 A 
HETATM    4  C4  UNL     1      35.838  25.960  41.982  1.00  0.00     0.017 A 
HETATM    5  C5  UNL     1      35.222  25.858  43.231  1.00  0.00     0.010 A 
HETATM    6  C6  UNL     1      33.876  26.219  43.358  1.00  0.00     0.024 A 
HETATM    7  C9  UNL     1      31.678  27.034  42.408  1.00  0.00     0.049 C 
HETATM    8  C10 UNL     1      30.967  27.385  41.087  1.00  0.00     0.023 C 
HETATM    9  C11 UNL     1      31.911  28.085  40.109  1.00  0.00     0.100 C 
HETATM   10  N1  UNL     1      33.099  27.263  39.858  1.00  0.00    -0.283 NA
HETATM   11  C12 UNL     1      30.840  25.873  42.883  1.00  0.00    -0.021 C 
HETATM   12  C13 UNL     1      30.105  25.347  41.896  1.00  0.00    -0.029 C 
HETATM   13  C14 UNL     1      30.336  26.066  40.606  1.00  0.00     0.034 C 
HETATM   14  H10 UNL     1      33.731  27.695  39.186  1.00  0.00     0.128 HD
ENDROOT
BRANCH   9  15
HETATM   15  C15 UNL     1      31.220  28.452  38.798  1.00  0.00    -0.020 A 
HETATM   16  C16 UNL     1      31.462  27.682  37.638  1.00  0.00     0.050 A 
HETATM   17  C17 UNL     1      30.815  28.012  36.466  1.00  0.00     0.105 A 
HETATM   18  C18 UNL     1      29.938  29.065  36.398  1.00  0.00     0.106 A 
HETATM   19  O2  UNL     1      30.948  27.370  35.276  1.00  0.00    -0.323 OA
HETATM   20  C19 UNL     1      29.657  29.843  37.497  1.00  0.00     0.059 A 
HETATM   21  O3  UNL     1      29.409  29.221  35.156  1.00  0.00    -0.323 OA
HETATM   22  C20 UNL     1      30.299  29.531  38.706  1.00  0.00     0.021 A 
HETATM   23 BR1  UNL     1      29.857  30.631  40.195  1.00  0.00    -0.050 Br
HETATM   24  C21 UNL     1      30.054  28.141  34.448  1.00  0.00     0.352 A 
ENDBRANCH   9  15
BRANCH   5  25
HETATM   25  C7  UNL     1      36.026  25.351  44.383  1.00  0.00     0.155 C 
HETATM   26  C8  UNL     1      36.356  23.884  44.453  1.00  0.00     0.096 C 
HETATM   27  O1  UNL     1      36.403  26.129  45.257  1.00  0.00    -0.293 OA
ENDBRANCH   5  25
TORSDOF 2
