REMARK  15 active torsions:
REMARK  status: ('A' for Active; 'I' for Inactive)
REMARK    1  A    between atoms: C2_2  and  O2_13 
REMARK    2  A    between atoms: C3_3  and  C12_14 
REMARK    3  A    between atoms: C4_4  and  C6_6 
REMARK    4  A    between atoms: C6_6  and  C7_7 
REMARK    5  A    between atoms: C8_8  and  C9_9 
REMARK    6  A    between atoms: C9_9  and  C10_10 
REMARK    7  A    between atoms: C10_10  and  C11_11 
REMARK    8  A    between atoms: C11_11  and  C20_23 
REMARK    9  A    between atoms: C13_15  and  C14_16 
REMARK   10  A    between atoms: C14_16  and  C15_17 
REMARK   11  A    between atoms: C14_16  and  O3_22 
REMARK   12  A    between atoms: C15_17  and  C16_18 
REMARK   13  A    between atoms: C16_18  and  C17_19 
REMARK   14  A    between atoms: C17_19  and  C18_20 
REMARK   15  A    between atoms: C20_23  and  O5_25 
ROOT
HETATM    1  C1  UNL     1      31.825  25.458  40.638  1.00  0.00     0.111 C 
HETATM    2  C2  UNL     1      31.523  25.995  42.028  1.00  0.00     0.133 C 
HETATM    3  C3  UNL     1      31.690  27.528  41.950  1.00  0.00     0.048 C 
HETATM    4  C4  UNL     1      31.323  27.921  40.500  1.00  0.00     0.069 C 
HETATM    5  C5  UNL     1      31.451  26.614  39.754  1.00  0.00     0.134 C 
HETATM    6  O1  UNL     1      31.320  26.510  38.538  1.00  0.00    -0.297 OA
ENDROOT
BRANCH   3   7
HETATM    7  C12 UNL     1      33.094  27.897  42.407  1.00  0.00    -0.020 C 
HETATM    8  C13 UNL     1      33.496  28.278  43.631  1.00  0.00     0.001 C 
BRANCH   8   9
HETATM    9  C14 UNL     1      34.918  28.635  43.970  1.00  0.00     0.140 C 
BRANCH   9  10
HETATM   10  C15 UNL     1      35.769  27.418  44.356  1.00  0.00     0.036 C 
BRANCH  10  11
HETATM   11  C16 UNL     1      37.072  27.317  43.556  1.00  0.00     0.003 C 
BRANCH  11  12
HETATM   12  C17 UNL     1      37.256  25.964  42.861  1.00  0.00    -0.000 C 
BRANCH  12  13
HETATM   13  C18 UNL     1      36.038  25.527  42.046  1.00  0.00    -0.005 C 
HETATM   14  C19 UNL     1      35.855  26.399  40.813  1.00  0.00     0.005 C 
ENDBRANCH  12  13
ENDBRANCH  11  12
ENDBRANCH  10  11
ENDBRANCH   9  10
BRANCH   9  15
HETATM   15  O3  UNL     1      35.491  29.249  42.820  1.00  0.00    -0.392 OA
HETATM   16  H31 UNL     1      35.348  28.657  42.063  1.00  0.00     0.210 HD
ENDBRANCH   9  15
ENDBRANCH   8   9
ENDBRANCH   3   7
BRANCH   2  17
HETATM   17  O2  UNL     1      30.196  25.654  42.414  1.00  0.00    -0.394 OA
HETATM   18  H16 UNL     1      30.240  25.168  43.256  1.00  0.00     0.210 HD
ENDBRANCH   2  17
BRANCH   4  19
HETATM   19  C6  UNL     1      29.951  28.579  40.300  1.00  0.00     0.040 C 
BRANCH  19  20
HETATM   20  C7  UNL     1      29.589  29.690  41.244  1.00  0.00    -0.030 C 
HETATM   21  C8  UNL     1      28.651  30.638  41.075  1.00  0.00    -0.031 C 
BRANCH  21  22
HETATM   22  C9  UNL     1      27.767  30.852  39.880  1.00  0.00     0.027 C 
BRANCH  22  23
HETATM   23  C10 UNL     1      28.054  32.173  39.156  1.00  0.00     0.014 C 
BRANCH  23  24
HETATM   24  C11 UNL     1      29.429  32.775  39.455  1.00  0.00     0.110 C 
BRANCH  24  25
HETATM   25  C20 UNL     1      30.468  32.395  38.436  1.00  0.00     0.139 C 
HETATM   26  O4  UNL     1      30.633  31.306  37.913  1.00  0.00    -0.650 OA
BRANCH  25  27
HETATM   27  O5  UNL     1      31.290  33.422  38.146  1.00  0.00    -0.776 OA
HETATM   28  H32 UNL     1      30.682  34.163  37.942  1.00  0.00     0.167 HD
ENDBRANCH  25  27
ENDBRANCH  24  25
ENDBRANCH  23  24
ENDBRANCH  22  23
ENDBRANCH  21  22
ENDBRANCH  19  20
ENDBRANCH   4  19
TORSDOF 15
