REMARK  7 active torsions:
REMARK  status: ('A' for Active; 'I' for Inactive)
REMARK    1  A    between atoms: C1_1  and  C12_15 
REMARK    2  A    between atoms: C2_2  and  O3_14 
REMARK    3  A    between atoms: C4_4  and  C7_9 
REMARK    4  A    between atoms: C7_9  and  C8_10 
REMARK    5  A    between atoms: C8_10  and  C9_11 
REMARK    6  A    between atoms: C9_11  and  C10_12 
REMARK    7  A    between atoms: C17_20  and  C19_22 
ROOT
HETATM    1  C1  UNL     1      31.084  28.228  38.404  1.00  0.00     0.037 A 
HETATM    2  C2  UNL     1      31.093  27.054  37.751  1.00  0.00     0.127 A 
HETATM    3  C3  UNL     1      30.808  26.944  36.293  1.00  0.00     0.211 A 
HETATM    4  C4  UNL     1      30.494  28.179  35.543  1.00  0.00    -0.001 A 
HETATM    5  C5  UNL     1      30.494  29.348  36.194  1.00  0.00     0.066 A 
HETATM    6  C6  UNL     1      30.770  29.468  37.640  1.00  0.00     0.182 A 
HETATM    7  O1  UNL     1      30.725  30.581  38.151  1.00  0.00    -0.288 OA
HETATM    8  O2  UNL     1      30.846  25.836  35.765  1.00  0.00    -0.285 OA
ENDROOT
BRANCH   1   9
HETATM    9  C12 UNL     1      31.394  28.350  39.889  1.00  0.00     0.056 C 
HETATM   10  C13 UNL     1      32.624  27.549  40.276  1.00  0.00    -0.014 C 
HETATM   11  C14 UNL     1      32.735  26.853  41.421  1.00  0.00    -0.087 C 
HETATM   12  C15 UNL     1      31.639  26.838  42.459  1.00  0.00     0.034 C 
HETATM   13  C18 UNL     1      33.955  26.039  41.744  1.00  0.00     0.043 C 
HETATM   14  C16 UNL     1      30.598  27.944  42.264  1.00  0.00     0.014 C 
HETATM   15  C17 UNL     1      30.159  28.032  40.792  1.00  0.00     0.026 C 
BRANCH  15  16
HETATM   16  C19 UNL     1      28.997  29.010  40.602  1.00  0.00    -0.088 C 
HETATM   17  C20 UNL     1      27.880  28.635  39.954  1.00  0.00     0.014 C 
HETATM   18  C21 UNL     1      29.127  30.401  41.165  1.00  0.00     0.043 C 
ENDBRANCH  15  16
ENDBRANCH   1   9
BRANCH   2  19
HETATM   19  O3  UNL     1      31.375  25.859  38.398  1.00  0.00    -0.356 OA
HETATM   20  H13 UNL     1      32.318  25.925  38.662  1.00  0.00     0.218 HD
ENDBRANCH   2  19
BRANCH   4  21
HETATM   21  C7  UNL     1      30.223  28.057  34.069  1.00  0.00     0.043 C 
BRANCH  21  22
HETATM   22  C8  UNL     1      29.242  29.124  33.571  1.00  0.00     0.005 C 
BRANCH  22  23
HETATM   23  C9  UNL     1      27.993  28.483  32.958  1.00  0.00    -0.000 C 
BRANCH  23  24
HETATM   24  C10 UNL     1      28.102  26.964  32.809  1.00  0.00    -0.005 C 
HETATM   25  C11 UNL     1      26.790  26.295  32.429  1.00  0.00     0.005 C 
ENDBRANCH  23  24
ENDBRANCH  22  23
ENDBRANCH  21  22
ENDBRANCH   4  21
TORSDOF 7
