REMARK  7 active torsions:
REMARK  status: ('A' for Active; 'I' for Inactive)
REMARK    1  A    between atoms: C6_6  and  C7_7 
REMARK    2  A    between atoms: C7_7  and  O4_25 
REMARK    3  A    between atoms: C13_14  and  C16_18 
REMARK    4  A    between atoms: C15_16  and  O2_17 
REMARK    5  A    between atoms: C16_18  and  C17_19 
REMARK    6  A    between atoms: C17_19  and  C18_20 
REMARK    7  A    between atoms: C18_20  and  C19_21 
ROOT
HETATM    1  C1  UNL     1      29.788  29.756  36.054  1.00  0.00     0.046 C 
HETATM    2  C2  UNL     1      29.109  30.097  37.388  1.00  0.00     0.013 C 
HETATM    3  C3  UNL     1      29.997  29.671  38.568  1.00  0.00     0.032 C 
HETATM    4  C4  UNL     1      30.153  28.129  38.545  1.00  0.00     0.054 C 
HETATM    5  C5  UNL     1      30.730  27.734  37.198  1.00  0.00    -0.003 C 
HETATM    6  C6  UNL     1      30.558  28.465  36.078  1.00  0.00     0.012 C 
HETATM    7  C8  UNL     1      29.546  30.149  39.961  1.00  0.00     0.065 C 
HETATM    8  C9  UNL     1      29.480  31.686  40.017  1.00  0.00     0.046 C 
HETATM    9  O1  UNL     1      30.557  29.801  40.928  1.00  0.00    -0.340 OA
HETATM   10  C10 UNL     1      31.078  28.536  40.860  1.00  0.00     0.080 A 
HETATM   11  C11 UNL     1      30.907  27.663  39.777  1.00  0.00     0.017 A 
HETATM   12  C12 UNL     1      31.799  28.151  41.997  1.00  0.00     0.044 A 
HETATM   13  C13 UNL     1      32.319  26.860  42.115  1.00  0.00    -0.053 A 
HETATM   14  C14 UNL     1      32.072  25.949  41.085  1.00  0.00     0.044 A 
HETATM   15  C15 UNL     1      31.360  26.345  39.946  1.00  0.00     0.075 A 
HETATM   16  C21 UNL     1      28.186  29.601  40.425  1.00  0.00     0.046 C 
ENDROOT
BRANCH  13  17
HETATM   17  C16 UNL     1      33.096  26.453  43.341  1.00  0.00     0.039 C 
BRANCH  17  18
HETATM   18  C17 UNL     1      34.556  26.923  43.335  1.00  0.00     0.005 C 
BRANCH  18  19
HETATM   19  C18 UNL     1      35.604  25.803  43.344  1.00  0.00    -0.000 C 
BRANCH  19  20
HETATM   20  C19 UNL     1      36.497  25.720  42.103  1.00  0.00    -0.005 C 
HETATM   21  C20 UNL     1      35.889  26.369  40.870  1.00  0.00     0.005 C 
ENDBRANCH  19  20
ENDBRANCH  18  19
ENDBRANCH  17  18
ENDBRANCH  13  17
BRANCH  15  22
HETATM   22  O2  UNL     1      31.067  25.402  39.000  1.00  0.00    -0.360 OA
HETATM   23  H16 UNL     1      30.185  25.576  38.636  1.00  0.00     0.217 HD
ENDBRANCH  15  22
BRANCH   6  24
HETATM   24  C7  UNL     1      31.165  27.964  34.823  1.00  0.00     0.171 C 
HETATM   25  O3  UNL     1      30.636  27.895  33.729  1.00  0.00    -0.646 OA
BRANCH  24  26
HETATM   26  O4  UNL     1      32.434  27.562  35.002  1.00  0.00    -0.773 OA
HETATM   27  H28 UNL     1      32.928  28.406  35.070  1.00  0.00     0.167 HD
ENDBRANCH  24  26
ENDBRANCH   6  24
TORSDOF 7
