REMARK  1 active torsions:
REMARK  status: ('A' for Active; 'I' for Inactive)
REMARK    1  A    between atoms: N2_8  and  C6_9 
ROOT
HETATM    1  C6  UNL     1      32.082  27.150  41.101  1.00  0.00     0.139 C 
HETATM    2  C7  UNL     1      31.569  26.111  40.149  1.00  0.00     0.036 A 
HETATM    3  N3  UNL     1      31.560  28.329  41.282  1.00  0.00    -0.228 NA
HETATM    4  C8  UNL     1      31.121  26.430  38.861  1.00  0.00     0.046 A 
HETATM    5  C9  UNL     1      31.637  24.766  40.557  1.00  0.00     0.017 A 
HETATM    6  C10 UNL     1      30.471  28.871  40.590  1.00  0.00     0.087 A 
HETATM    7  N4  UNL     1      30.906  27.752  38.423  1.00  0.00    -0.354 N 
HETATM    8  C11 UNL     1      30.806  25.375  37.983  1.00  0.00     0.030 A 
HETATM    9  C12 UNL     1      31.298  23.735  39.682  1.00  0.00     0.001 A 
HETATM   10  C13 UNL     1      30.213  28.697  39.216  1.00  0.00     0.061 A 
HETATM   11  C14 UNL     1      29.683  29.774  41.320  1.00  0.00     0.057 A 
HETATM   12  C15 UNL     1      30.895  24.041  38.387  1.00  0.00     0.002 A 
HETATM   13  C16 UNL     1      29.184  29.445  38.610  1.00  0.00     0.033 A 
HETATM   14  C17 UNL     1      28.658  30.491  40.709  1.00  0.00     0.036 A 
HETATM   15  C18 UNL     1      28.408  30.335  39.353  1.00  0.00     0.026 A 
HETATM   16 CL1  UNL     1      27.708  31.588  41.634  1.00  0.00    -0.084 Cl
HETATM   17  H13 UNL     1      30.646  27.804  37.444  1.00  0.00     0.166 HD
ENDROOT
BRANCH   1  18
HETATM   18  N2  UNL     1      33.216  26.812  41.869  1.00  0.00    -0.361 N 
HETATM   19  C4  UNL     1      33.271  27.268  43.279  1.00  0.00     0.161 C 
HETATM   20  C2  UNL     1      34.300  28.378  43.453  1.00  0.00     0.331 C 
HETATM   21  N1  UNL     1      35.715  27.884  43.163  1.00  0.00     0.012 N 
HETATM   22  C1  UNL     1      36.370  27.404  44.427  1.00  0.00     0.356 C 
HETATM   23  O1  UNL     1      36.474  28.915  42.657  1.00  0.00    -0.065 OA
HETATM   24  C3  UNL     1      35.683  26.747  42.153  1.00  0.00     0.331 C 
HETATM   25  C5  UNL     1      34.530  26.902  41.170  1.00  0.00     0.161 C 
ENDBRANCH   1  18
TORSDOF 1
