REMARK  15 active torsions:
REMARK  status: ('A' for Active; 'I' for Inactive)
REMARK    1  A    between atoms: C2_2  and  C13_15 
REMARK    2  A    between atoms: C3_3  and  C6_8 
REMARK    3  A    between atoms: C4_4  and  O1_6 
REMARK    4  A    between atoms: C6_8  and  C7_9 
REMARK    5  A    between atoms: C8_10  and  C9_11 
REMARK    6  A    between atoms: C9_11  and  C10_12 
REMARK    7  A    between atoms: C10_12  and  C11_13 
REMARK    8  A    between atoms: C11_13  and  C12_14 
REMARK    9  A    between atoms: C12_14  and  O4_24 
REMARK   10  A    between atoms: C14_16  and  C15_17 
REMARK   11  A    between atoms: C15_17  and  C16_18 
REMARK   12  A    between atoms: C15_17  and  O3_23 
REMARK   13  A    between atoms: C16_18  and  C17_19 
REMARK   14  A    between atoms: C17_19  and  C18_20 
REMARK   15  A    between atoms: C18_20  and  C19_21 
ROOT
HETATM    1  C1  UNL     1      29.962  31.648  38.074  1.00  0.00     0.137 C 
HETATM    2  C2  UNL     1      30.034  30.128  38.177  1.00  0.00     0.084 C 
HETATM    3  C3  UNL     1      28.618  29.792  38.690  1.00  0.00     0.033 C 
HETATM    4  C4  UNL     1      27.735  30.889  38.072  1.00  0.00     0.130 C 
HETATM    5  C5  UNL     1      28.552  32.173  38.129  1.00  0.00     0.111 C 
HETATM    6  O2  UNL     1      30.942  32.374  37.932  1.00  0.00    -0.297 OA
ENDROOT
BRANCH   2   7
HETATM    7  C13 UNL     1      30.466  29.619  36.819  1.00  0.00    -0.016 C 
HETATM    8  C14 UNL     1      30.520  28.348  36.386  1.00  0.00     0.001 C 
BRANCH   8   9
HETATM    9  C15 UNL     1      30.946  27.855  35.027  1.00  0.00     0.140 C 
BRANCH   9  10
HETATM   10  C16 UNL     1      30.245  26.625  34.433  1.00  0.00     0.036 C 
BRANCH  10  11
HETATM   11  C17 UNL     1      29.231  26.982  33.342  1.00  0.00     0.003 C 
BRANCH  11  12
HETATM   12  C18 UNL     1      29.315  28.443  32.889  1.00  0.00    -0.000 C 
BRANCH  12  13
HETATM   13  C19 UNL     1      28.006  29.213  33.064  1.00  0.00    -0.005 C 
HETATM   14  C20 UNL     1      28.134  30.290  34.129  1.00  0.00     0.005 C 
ENDBRANCH  12  13
ENDBRANCH  11  12
ENDBRANCH  10  11
ENDBRANCH   9  10
BRANCH   9  15
HETATM   15  O3  UNL     1      32.340  27.572  35.140  1.00  0.00    -0.392 OA
HETATM   16  H31 UNL     1      32.717  27.654  34.247  1.00  0.00     0.210 HD
ENDBRANCH   9  15
ENDBRANCH   8   9
ENDBRANCH   2   7
BRANCH   3  17
HETATM   17  C6  UNL     1      28.541  29.666  40.234  1.00  0.00     0.035 C 
BRANCH  17  18
HETATM   18  C7  UNL     1      29.838  29.626  40.997  1.00  0.00    -0.030 C 
HETATM   19  C8  UNL     1      30.638  28.571  41.218  1.00  0.00    -0.031 C 
BRANCH  19  20
HETATM   20  C9  UNL     1      30.435  27.146  40.776  1.00  0.00     0.027 C 
BRANCH  20  21
HETATM   21  C10 UNL     1      31.449  26.682  39.720  1.00  0.00     0.014 C 
BRANCH  21  22
HETATM   22  C11 UNL     1      30.968  25.543  38.819  1.00  0.00     0.110 C 
BRANCH  22  23
HETATM   23  C12 UNL     1      31.263  24.184  39.392  1.00  0.00     0.139 C 
HETATM   24  O5  UNL     1      31.616  23.920  40.528  1.00  0.00    -0.650 OA
BRANCH  23  25
HETATM   25  O4  UNL     1      31.131  23.208  38.471  1.00  0.00    -0.776 OA
HETATM   26  H32 UNL     1      31.662  22.467  38.832  1.00  0.00     0.167 HD
ENDBRANCH  23  25
ENDBRANCH  22  23
ENDBRANCH  21  22
ENDBRANCH  20  21
ENDBRANCH  19  20
ENDBRANCH  17  18
ENDBRANCH   3  17
BRANCH   4  27
HETATM   27  O1  UNL     1      26.493  31.012  38.741  1.00  0.00    -0.395 OA
HETATM   28  H10 UNL     1      26.664  31.360  39.633  1.00  0.00     0.210 HD
ENDBRANCH   4  27
TORSDOF 15
