REMARK  14 active torsions:
REMARK  status: ('A' for Active; 'I' for Inactive)
REMARK    1  A    between atoms: C2_2  and  O2_7 
REMARK    2  A    between atoms: C3_3  and  C6_8 
REMARK    3  A    between atoms: C4_4  and  C14_16 
REMARK    4  A    between atoms: C6_8  and  C7_9 
REMARK    5  A    between atoms: C7_9  and  C8_10 
REMARK    6  A    between atoms: C8_10  and  C9_11 
REMARK    7  A    between atoms: C9_11  and  C10_12 
REMARK    8  A    between atoms: C10_12  and  C11_13 
REMARK    9  A    between atoms: C11_13  and  C12_14 
REMARK   10  A    between atoms: C12_14  and  C13_15 
REMARK   11  A    between atoms: C13_15  and  O4_20 
REMARK   12  A    between atoms: C14_16  and  C15_17 
REMARK   13  A    between atoms: C15_17  and  C16_18 
REMARK   14  A    between atoms: C16_18  and  O6_22 
ROOT
HETATM    1  C1  UNL     1      30.487  30.243  37.667  1.00  0.00     0.110 C 
HETATM    2  C2  UNL     1      30.365  30.205  39.185  1.00  0.00     0.130 C 
HETATM    3  C3  UNL     1      28.950  29.678  39.490  1.00  0.00     0.026 C 
HETATM    4  C4  UNL     1      28.066  30.286  38.373  1.00  0.00     0.062 C 
HETATM    5  C5  UNL     1      29.054  30.389  37.231  1.00  0.00     0.134 C 
HETATM    6  O1  UNL     1      28.715  30.535  36.060  1.00  0.00    -0.297 OA
ENDROOT
BRANCH   3   7
HETATM    7  C6  UNL     1      28.933  28.136  39.489  1.00  0.00     0.015 C 
BRANCH   7   8
HETATM    8  C7  UNL     1      29.727  27.531  40.650  1.00  0.00     0.079 C 
BRANCH   8   9
HETATM    9  C8  UNL     1      30.869  26.651  40.165  1.00  0.00     0.127 C 
HETATM   10  O3  UNL     1      31.511  26.908  39.147  1.00  0.00    -0.298 OA
BRANCH   9  11
HETATM   11  C9  UNL     1      31.201  25.428  40.998  1.00  0.00     0.078 C 
BRANCH  11  12
HETATM   12  C10 UNL     1      31.411  25.743  42.475  1.00  0.00     0.008 C 
BRANCH  12  13
HETATM   13  C11 UNL     1      32.765  26.371  42.821  1.00  0.00     0.011 C 
BRANCH  13  14
HETATM   14  C12 UNL     1      33.917  25.848  41.966  1.00  0.00     0.110 C 
BRANCH  14  15
HETATM   15  C13 UNL     1      34.812  26.957  41.486  1.00  0.00     0.139 C 
HETATM   16  O5  UNL     1      35.718  26.844  40.678  1.00  0.00    -0.650 OA
BRANCH  15  17
HETATM   17  O4  UNL     1      34.505  28.159  42.005  1.00  0.00    -0.776 OA
HETATM   18  H23 UNL     1      33.694  27.992  42.531  1.00  0.00     0.167 HD
ENDBRANCH  15  17
ENDBRANCH  14  15
ENDBRANCH  13  14
ENDBRANCH  12  13
ENDBRANCH  11  12
ENDBRANCH   9  11
ENDBRANCH   8   9
ENDBRANCH   7   8
ENDBRANCH   3   7
BRANCH   2  19
HETATM   19  O2  UNL     1      30.494  31.513  39.729  1.00  0.00    -0.395 OA
HETATM   20  H12 UNL     1      30.299  32.158  39.026  1.00  0.00     0.210 HD
ENDBRANCH   2  19
BRANCH   4  21
HETATM   21  C14 UNL     1      27.462  31.643  38.766  1.00  0.00     0.023 C 
BRANCH  21  22
HETATM   22  C15 UNL     1      27.046  31.736  40.238  1.00  0.00     0.111 C 
BRANCH  22  23
HETATM   23  C16 UNL     1      27.829  32.772  41.006  1.00  0.00     0.139 C 
HETATM   24  O7  UNL     1      28.807  32.585  41.710  1.00  0.00    -0.650 OA
BRANCH  23  25
HETATM   25  O6  UNL     1      27.296  34.003  40.878  1.00  0.00    -0.776 OA
HETATM   26  H24 UNL     1      28.059  34.558  40.614  1.00  0.00     0.167 HD
ENDBRANCH  23  25
ENDBRANCH  22  23
ENDBRANCH  21  22
ENDBRANCH   4  21
TORSDOF 14
