REMARK  12 active torsions:
REMARK  status: ('A' for Active; 'I' for Inactive)
REMARK    1  A    between atoms: C1_2  and  C2_3 
REMARK    2  A    between atoms: C1_2  and  O12_34 
REMARK    3  A    between atoms: O2_4  and  C3_5 
REMARK    4  A    between atoms: O3_6  and  C4_7 
REMARK    5  A    between atoms: C5_8  and  O13_35 
REMARK    6  A    between atoms: C6_9  and  C8_12 
REMARK    7  A    between atoms: O4_10  and  C7_11 
REMARK    8  A    between atoms: O5_13  and  C9_14 
REMARK    9  A    between atoms: O6_15  and  C10_16 
REMARK   10  A    between atoms: O7_18  and  C12_19 
REMARK   11  A    between atoms: O9_21  and  C13_22 
REMARK   12  A    between atoms: C13_22  and  C14_23 
ROOT
HETATM    1  C7  UNL     1      30.944  28.203  38.358  1.00  0.00     0.092 A 
HETATM    2  C8  UNL     1      31.145  28.397  39.736  1.00  0.00     0.043 A 
HETATM    3  C9  UNL     1      30.582  29.548  40.294  1.00  0.00     0.111 A 
HETATM    4  C10 UNL     1      29.836  30.452  39.525  1.00  0.00     0.115 A 
HETATM    5  C11 UNL     1      28.050  31.906  35.111  1.00  0.00     0.054 A 
HETATM    6  C12 UNL     1      27.951  31.763  33.734  1.00  0.00     0.084 A 
HETATM    7  C14 UNL     1      28.479  30.634  33.086  1.00  0.00     0.077 A 
HETATM    8  C15 UNL     1      29.518  28.315  33.198  1.00  0.00     0.050 C 
HETATM    9  C16 UNL     1      29.073  29.598  33.860  1.00  0.00    -0.027 A 
HETATM   10  C17 UNL     1      29.234  29.793  35.265  1.00  0.00     0.036 A 
HETATM   11  C18 UNL     1      28.705  30.935  35.876  1.00  0.00     0.032 A 
HETATM   12  O10 UNL     1      28.169  32.084  37.820  1.00  0.00    -0.286 OA
HETATM   13  C19 UNL     1      28.797  31.149  37.336  1.00  0.00     0.197 C 
HETATM   14  C20 UNL     1      29.610  30.229  38.162  1.00  0.00     0.068 A 
HETATM   15  C21 UNL     1      30.175  29.099  37.573  1.00  0.00     0.066 A 
HETATM   16  C22 UNL     1      29.980  28.838  36.129  1.00  0.00     0.197 C 
HETATM   17  O11 UNL     1      30.487  27.816  35.675  1.00  0.00    -0.286 OA
ENDROOT
BRANCH   2  18
HETATM   18  C6  UNL     1      31.969  27.394  40.538  1.00  0.00     0.192 C 
HETATM   19  O1  UNL     1      31.555  26.057  40.207  1.00  0.00    -0.368 OA
HETATM   20  C2  UNL     1      32.444  25.053  40.751  1.00  0.00     0.177 C 
HETATM   21  C3  UNL     1      32.929  25.393  42.183  1.00  0.00     0.180 C 
HETATM   22  C4  UNL     1      31.937  26.344  42.873  1.00  0.00     0.181 C 
HETATM   23  C5  UNL     1      31.833  27.654  42.066  1.00  0.00     0.183 C 
BRANCH  20  24
HETATM   24  C1  UNL     1      31.682  23.719  40.690  1.00  0.00     0.198 C 
BRANCH  24  25
HETATM   25  O12 UNL     1      31.457  23.304  39.350  1.00  0.00    -0.398 OA
HETATM   26  H19 UNL     1      31.913  23.943  38.774  1.00  0.00     0.209 HD
ENDBRANCH  24  25
ENDBRANCH  20  24
BRANCH  21  27
HETATM   27  O2  UNL     1      34.228  26.009  42.090  1.00  0.00    -0.390 OA
HETATM   28  H4  UNL     1      34.856  25.365  41.702  1.00  0.00     0.210 HD
ENDBRANCH  21  27
BRANCH  22  29
HETATM   29  O3  UNL     1      30.652  25.735  43.021  1.00  0.00    -0.390 OA
HETATM   30  H6  UNL     1      30.512  25.163  42.243  1.00  0.00     0.210 HD
ENDBRANCH  22  29
BRANCH  23  31
HETATM   31  O13 UNL     1      32.889  28.527  42.516  1.00  0.00    -0.390 OA
HETATM   32  H20 UNL     1      33.589  27.950  42.892  1.00  0.00     0.210 HD
ENDBRANCH  23  31
ENDBRANCH   2  18
BRANCH   1  33
HETATM   33  O4  UNL     1      31.562  27.104  37.802  1.00  0.00    -0.359 OA
HETATM   34  H10 UNL     1      32.521  27.313  37.689  1.00  0.00     0.217 HD
ENDBRANCH   1  33
BRANCH   3  35
HETATM   35  O5  UNL     1      30.721  29.875  41.621  1.00  0.00    -0.357 OA
HETATM   36  H11 UNL     1      31.587  29.512  41.913  1.00  0.00     0.217 HD
ENDBRANCH   3  35
BRANCH   4  37
HETATM   37  O6  UNL     1      29.351  31.557  40.173  1.00  0.00    -0.357 OA
HETATM   38  H12 UNL     1      28.378  31.454  40.185  1.00  0.00     0.217 HD
ENDBRANCH   4  37
BRANCH   7  39
HETATM   39  C13 UNL     1      28.485  30.576  31.594  1.00  0.00     0.179 C 
HETATM   40  O8  UNL     1      27.567  30.255  30.866  1.00  0.00    -0.646 OA
BRANCH  39  41
HETATM   41  O9  UNL     1      29.682  30.924  31.074  1.00  0.00    -0.773 OA
HETATM   42  H15 UNL     1      29.857  31.798  31.493  1.00  0.00     0.167 HD
ENDBRANCH  39  41
ENDBRANCH   7  39
BRANCH   6  43
HETATM   43  O7  UNL     1      27.319  32.789  33.085  1.00  0.00    -0.360 OA
HETATM   44  H14 UNL     1      26.453  32.459  32.763  1.00  0.00     0.217 HD
ENDBRANCH   6  43
TORSDOF 12
