REMARK  7 active torsions:
REMARK  status: ('A' for Active; 'I' for Inactive)
REMARK    1  A    between atoms: C12_13  and  C15_17 
REMARK    2  A    between atoms: C14_15  and  O2_16 
REMARK    3  A    between atoms: C15_17  and  C16_18 
REMARK    4  A    between atoms: C16_18  and  C17_19 
REMARK    5  A    between atoms: C17_19  and  C18_20 
REMARK    6  A    between atoms: C18_20  and  C21_23 
REMARK    7  A    between atoms: C21_23  and  C22_24 
ROOT
HETATM    1  C1  UNL     1      29.805  29.443  35.754  1.00  0.00    -0.024 C 
HETATM    2  C2  UNL     1      29.399  30.066  37.057  1.00  0.00     0.035 C 
HETATM    3  C3  UNL     1      30.260  29.575  38.234  1.00  0.00     0.032 C 
HETATM    4  C4  UNL     1      30.351  28.031  38.213  1.00  0.00     0.035 C 
HETATM    5  C5  UNL     1      31.058  27.605  36.900  1.00  0.00     0.043 C 
HETATM    6  C6  UNL     1      30.580  28.348  35.668  1.00  0.00    -0.087 C 
HETATM    7  C7  UNL     1      31.017  27.779  34.349  1.00  0.00     0.043 C 
HETATM    8  C8  UNL     1      29.814  30.086  39.618  1.00  0.00     0.065 C 
HETATM    9  O1  UNL     1      30.780  29.684  40.611  1.00  0.00    -0.340 OA
HETATM   10  C9  UNL     1      31.193  28.380  40.574  1.00  0.00     0.079 A 
HETATM   11  C10 UNL     1      31.007  27.518  39.483  1.00  0.00     0.013 A 
HETATM   12  C11 UNL     1      31.836  27.947  41.739  1.00  0.00     0.044 A 
HETATM   13  C12 UNL     1      32.261  26.623  41.873  1.00  0.00    -0.053 A 
HETATM   14  C13 UNL     1      32.027  25.737  40.820  1.00  0.00     0.044 A 
HETATM   15  C14 UNL     1      31.396  26.180  39.652  1.00  0.00     0.075 A 
HETATM   16  C19 UNL     1      28.416  29.622  40.064  1.00  0.00     0.046 C 
HETATM   17  C20 UNL     1      29.836  31.625  39.662  1.00  0.00     0.046 C 
ENDROOT
BRANCH  13  18
HETATM   18  C15 UNL     1      32.970  26.167  43.123  1.00  0.00     0.039 C 
BRANCH  18  19
HETATM   19  C16 UNL     1      34.350  26.814  43.254  1.00  0.00     0.005 C 
BRANCH  19  20
HETATM   20  C17 UNL     1      35.447  25.758  43.404  1.00  0.00     0.000 C 
BRANCH  20  21
HETATM   21  C18 UNL     1      36.464  25.850  42.262  1.00  0.00     0.000 C 
BRANCH  21  22
HETATM   22  C21 UNL     1      36.924  27.284  41.980  1.00  0.00    -0.000 C 
BRANCH  22  23
HETATM   23  C22 UNL     1      38.276  27.657  42.595  1.00  0.00    -0.005 C 
HETATM   24  C23 UNL     1      38.185  28.345  43.946  1.00  0.00     0.005 C 
ENDBRANCH  22  23
ENDBRANCH  21  22
ENDBRANCH  20  21
ENDBRANCH  19  20
ENDBRANCH  18  19
ENDBRANCH  13  18
BRANCH  15  25
HETATM   25  O2  UNL     1      31.133  25.271  38.665  1.00  0.00    -0.360 OA
HETATM   26  H13 UNL     1      30.244  25.437  38.309  1.00  0.00     0.217 HD
ENDBRANCH  15  25
TORSDOF 7
