REMARK  11 active torsions:
REMARK  status: ('A' for Active; 'I' for Inactive)
REMARK    1  A    between atoms: C1_1  and  C2_2 
REMARK       I    between atoms: C1_1  and  N1_4 
REMARK    2  A    between atoms: N1_4  and  C11_15 
REMARK    3  A    between atoms: N3_6  and  C9_13 
REMARK    4  A    between atoms: C9_13  and  C10_14 
REMARK    5  A    between atoms: C10_14  and  C15_21 
REMARK    6  A    between atoms: C11_15  and  C12_16 
REMARK    7  A    between atoms: C11_15  and  C13_17 
REMARK       I    between atoms: C13_17  and  N4_18 
REMARK    8  A    between atoms: C15_21  and  C16_22 
REMARK    9  A    between atoms: C16_22  and  C17_23 
REMARK   10  A    between atoms: C17_23  and  C20_26 
REMARK   11  A    between atoms: C20_26  and  O3_27 
ROOT
HETATM    1  C2  UNL     1      30.979  27.893  39.473  1.00  0.00     0.157 A 
HETATM    2  N2  UNL     1      31.345  28.204  40.731  1.00  0.00    -0.166 NA
HETATM    3  N3  UNL     1      31.582  27.019  41.317  1.00  0.00    -0.268 N 
HETATM    4  C3  UNL     1      31.412  25.938  40.491  1.00  0.00     0.065 A 
HETATM    5  C4  UNL     1      31.025  26.476  39.266  1.00  0.00     0.028 A 
HETATM    6  C5  UNL     1      31.570  24.559  40.697  1.00  0.00     0.032 A 
HETATM    7  C6  UNL     1      31.327  23.710  39.614  1.00  0.00     0.002 A 
HETATM    8  C7  UNL     1      30.951  24.219  38.374  1.00  0.00     0.001 A 
HETATM    9  C8  UNL     1      30.800  25.597  38.184  1.00  0.00     0.016 A 
ENDROOT
BRANCH   1  10
HETATM   10  C1  UNL     1      30.603  28.948  38.515  1.00  0.00     0.273 C 
HETATM   11  O1  UNL     1      31.021  28.996  37.359  1.00  0.00    -0.266 OA
HETATM   12  N1  UNL     1      29.763  29.926  39.026  1.00  0.00    -0.342 N 
HETATM   13  H1  UNL     1      29.821  30.045  40.032  1.00  0.00     0.163 HD
BRANCH  12  14
HETATM   14  C11 UNL     1      29.533  31.152  38.264  1.00  0.00     0.184 C 
BRANCH  14  15
HETATM   15  C12 UNL     1      28.127  31.184  37.591  1.00  0.00    -0.022 C 
HETATM   16  C14 UNL     1      27.173  30.253  38.370  1.00  0.00     0.017 C 
HETATM   17  C18 UNL     1      27.512  32.595  37.564  1.00  0.00     0.017 C 
HETATM   18  C19 UNL     1      28.218  30.661  36.143  1.00  0.00     0.017 C 
ENDBRANCH  14  15
BRANCH  14  19
HETATM   19  C13 UNL     1      29.762  32.308  39.260  1.00  0.00     0.239 C 
HETATM   20  N4  UNL     1      30.547  33.335  38.817  1.00  0.00    -0.368 N 
HETATM   21  H11 UNL     1      30.794  34.013  39.529  1.00  0.00     0.159 HD
HETATM   22  H12 UNL     1      31.272  33.136  38.137  1.00  0.00     0.159 HD
HETATM   23  O2  UNL     1      29.267  32.338  40.385  1.00  0.00    -0.271 OA
ENDBRANCH  14  19
ENDBRANCH  12  14
ENDBRANCH   1  10
BRANCH   3  24
HETATM   24  C9  UNL     1      31.999  27.000  42.709  1.00  0.00     0.151 C 
BRANCH  24  25
HETATM   25  C10 UNL     1      32.920  28.172  43.044  1.00  0.00     0.022 C 
BRANCH  25  26
HETATM   26  C15 UNL     1      34.320  27.684  43.422  1.00  0.00     0.002 C 
BRANCH  26  27
HETATM   27  C16 UNL     1      34.453  26.158  43.363  1.00  0.00     0.002 C 
BRANCH  27  28
HETATM   28  C17 UNL     1      35.598  25.654  42.481  1.00  0.00     0.026 C 
BRANCH  28  29
HETATM   29  C20 UNL     1      36.259  26.723  41.624  1.00  0.00     0.164 C 
BRANCH  29  30
HETATM   30  O3  UNL     1      35.744  26.651  40.300  1.00  0.00    -0.401 OA
HETATM   31  H30 UNL     1      36.195  25.916  39.850  1.00  0.00     0.209 HD
ENDBRANCH  29  30
ENDBRANCH  28  29
ENDBRANCH  27  28
ENDBRANCH  26  27
ENDBRANCH  25  26
ENDBRANCH  24  25
ENDBRANCH   3  24
TORSDOF 11
