REMARK  6 active torsions:
REMARK  status: ('A' for Active; 'I' for Inactive)
REMARK    1  A    between atoms: C12_12  and  O1_13 
REMARK    2  A    between atoms: C19_21  and  C20_22 
REMARK    3  A    between atoms: C19_21  and  O5_26 
REMARK    4  A    between atoms: C20_22  and  C21_23 
REMARK    5  A    between atoms: C20_22  and  O4_25 
REMARK    6  A    between atoms: C21_23  and  O3_24 
ROOT
HETATM    1  C1  UNL     1      28.664  27.987  39.588  1.00  0.00     0.019 C 
HETATM    2  C2  UNL     1      29.529  29.273  39.576  1.00  0.00     0.000 C 
HETATM    3  C3  UNL     1      30.049  29.662  40.980  1.00  0.00     0.002 C 
HETATM    4  C4  UNL     1      30.847  28.551  41.673  1.00  0.00     0.002 C 
HETATM    5  C5  UNL     1      32.040  28.096  40.787  1.00  0.00     0.068 C 
HETATM    6  C6  UNL     1      32.761  26.842  41.425  1.00  0.00    -0.029 C 
HETATM    7  C7  UNL     1      31.935  25.551  41.168  1.00  0.00     0.016 C 
HETATM    8  C8  UNL     1      32.905  27.018  42.990  1.00  0.00    -0.003 C 
HETATM    9  C9  UNL     1      32.692  28.467  43.449  1.00  0.00     0.006 C 
HETATM   10  C10 UNL     1      31.326  29.015  43.059  1.00  0.00     0.006 C 
HETATM   11  C11 UNL     1      34.257  26.535  43.555  1.00  0.00     0.037 C 
HETATM   12  C12 UNL     1      34.781  25.287  42.865  1.00  0.00     0.118 C 
HETATM   13  C13 UNL     1      34.992  25.518  41.371  1.00  0.00     0.032 C 
HETATM   14  C14 UNL     1      34.175  26.683  40.804  1.00  0.00     0.013 C 
HETATM   15  C15 UNL     1      31.634  27.948  39.296  1.00  0.00     0.133 C 
HETATM   16  O2  UNL     1      32.072  27.059  38.564  1.00  0.00    -0.298 OA
HETATM   17  C16 UNL     1      30.757  29.035  38.693  1.00  0.00     0.091 C 
HETATM   18  C17 UNL     1      28.806  30.199  41.686  1.00  0.00     0.009 C 
HETATM   19  C18 UNL     1      27.968  30.854  40.568  1.00  0.00     0.042 C 
HETATM   20  C19 UNL     1      28.702  30.560  39.233  1.00  0.00     0.093 C 
ENDROOT
BRANCH  20  21
HETATM   21  C20 UNL     1      27.746  30.497  38.001  1.00  0.00     0.176 C 
BRANCH  21  22
HETATM   22  C21 UNL     1      28.395  31.019  36.701  1.00  0.00     0.198 C 
BRANCH  22  23
HETATM   23  O3  UNL     1      28.493  32.439  36.689  1.00  0.00    -0.398 OA
HETATM   24  H32 UNL     1      29.145  32.671  36.002  1.00  0.00     0.209 HD
ENDBRANCH  22  23
ENDBRANCH  21  22
BRANCH  21  25
HETATM   25  O4  UNL     1      26.546  31.243  38.199  1.00  0.00    -0.390 OA
HETATM   26  H33 UNL     1      25.837  30.608  38.406  1.00  0.00     0.210 HD
ENDBRANCH  21  25
ENDBRANCH  20  21
BRANCH  20  27
HETATM   27  O5  UNL     1      29.656  31.626  39.030  1.00  0.00    -0.386 OA
HETATM   28  H34 UNL     1      30.195  31.397  38.242  1.00  0.00     0.210 HD
ENDBRANCH  20  27
BRANCH  12  29
HETATM   29  O1  UNL     1      36.016  24.909  43.471  1.00  0.00    -0.396 OA
HETATM   30  H18 UNL     1      35.947  25.113  44.420  1.00  0.00     0.210 HD
ENDBRANCH  12  29
TORSDOF 6
