REMARK  24 active torsions:
REMARK  status: ('A' for Active; 'I' for Inactive)
REMARK    1  A    between atoms: C1_1  and  C2_2 
REMARK    2  A    between atoms: C1_1  and  C5_5 
REMARK    3  A    between atoms: C2_2  and  C14_15 
REMARK    4  A    between atoms: C3_3  and  C6_6 
REMARK    5  A    between atoms: C4_4  and  C5_5 
REMARK    6  A    between atoms: C6_6  and  C7_7 
REMARK    7  A    between atoms: C7_7  and  C8_8 
REMARK    8  A    between atoms: C8_8  and  C9_9 
REMARK    9  A    between atoms: C9_9  and  C10_10 
REMARK   10  A    between atoms: C10_10  and  C11_11 
REMARK   11  A    between atoms: C11_11  and  C12_12 
REMARK   12  A    between atoms: C12_12  and  C13_13 
REMARK   13  A    between atoms: C13_13  and  O1_14 
REMARK   14  A    between atoms: O1_14  and  C19_20 
REMARK   15  A    between atoms: C14_15  and  C15_16 
REMARK   16  A    between atoms: C15_16  and  C16_17 
REMARK   17  A    between atoms: C16_17  and  C17_18 
REMARK   18  A    between atoms: C19_20  and  C20_21 
REMARK   19  A    between atoms: C20_21  and  O2_22 
REMARK   20  A    between atoms: O2_22  and  P1_23 
REMARK   21  A    between atoms: P1_23  and  O5_26 
REMARK   22  A    between atoms: O5_26  and  C21_27 
REMARK   23  A    between atoms: C21_27  and  C22_28 
REMARK   24  A    between atoms: C22_28  and  N1_29 
ROOT
HETATM    1  C11 UNL     1      31.166  26.757  34.913  1.00  0.00     0.002 C 
ENDROOT
BRANCH   1   2
HETATM    2  C10 UNL     1      30.867  26.922  36.405  1.00  0.00     0.000 C 
BRANCH   2   3
HETATM    3  C9  UNL     1      30.279  25.670  37.056  1.00  0.00     0.000 C 
BRANCH   3   4
HETATM    4  C8  UNL     1      30.690  25.589  38.528  1.00  0.00     0.000 C 
BRANCH   4   5
HETATM    5  C7  UNL     1      31.191  24.206  38.953  1.00  0.00     0.004 C 
BRANCH   5   6
HETATM    6  C6  UNL     1      31.573  24.058  40.430  1.00  0.00     0.027 C 
BRANCH   6   7
HETATM    7  C3  UNL     1      30.885  24.994  41.384  1.00  0.00    -0.031 C 
HETATM    8  C4  UNL     1      31.447  25.784  42.312  1.00  0.00    -0.031 C 
BRANCH   8   9
HETATM    9  C5  UNL     1      32.909  25.913  42.634  1.00  0.00     0.027 C 
BRANCH   9  10
HETATM   10  C1  UNL     1      33.471  27.310  42.339  1.00  0.00     0.004 C 
BRANCH  10  11
HETATM   11  C2  UNL     1      33.756  28.185  43.566  1.00  0.00     0.000 C 
BRANCH  11  12
HETATM   12  C14 UNL     1      35.243  28.506  43.748  1.00  0.00     0.000 C 
BRANCH  12  13
HETATM   13  C15 UNL     1      35.903  27.699  44.873  1.00  0.00     0.000 C 
BRANCH  13  14
HETATM   14  C16 UNL     1      36.181  26.239  44.503  1.00  0.00    -0.000 C 
BRANCH  14  15
HETATM   15  C17 UNL     1      36.860  26.080  43.141  1.00  0.00    -0.005 C 
HETATM   16  C18 UNL     1      36.871  24.646  42.631  1.00  0.00     0.005 C 
ENDBRANCH  14  15
ENDBRANCH  13  14
ENDBRANCH  12  13
ENDBRANCH  11  12
ENDBRANCH  10  11
ENDBRANCH   9  10
ENDBRANCH   8   9
ENDBRANCH   6   7
ENDBRANCH   5   6
ENDBRANCH   4   5
ENDBRANCH   3   4
ENDBRANCH   2   3
ENDBRANCH   1   2
BRANCH   1  17
HETATM   17  C12 UNL     1      29.952  26.988  34.003  1.00  0.00     0.026 C 
BRANCH  17  18
HETATM   18  C13 UNL     1      29.775  28.475  33.697  1.00  0.00     0.167 C 
BRANCH  18  19
HETATM   19  O1  UNL     1      28.658  28.623  32.827  1.00  0.00    -0.389 OA
BRANCH  19  20
HETATM   20  C19 UNL     1      27.848  29.766  33.098  1.00  0.00     0.194 C 
BRANCH  20  21
HETATM   21  C20 UNL     1      28.228  30.498  34.383  1.00  0.00     0.207 C 
BRANCH  21  22
HETATM   22  O2  UNL     1      27.115  30.526  35.255  1.00  0.00    -0.288 OA
BRANCH  22  23
HETATM   23  P1  UNL     1      27.286  31.309  36.653  1.00  0.00     0.408 P 
HETATM   24  O3  UNL     1      27.050  32.788  36.471  1.00  0.00    -0.624 OA
HETATM   25  O4  UNL     1      26.577  30.582  37.761  1.00  0.00    -0.624 OA
BRANCH  23  26
HETATM   26  O5  UNL     1      28.881  31.123  36.896  1.00  0.00    -0.288 OA
BRANCH  26  27
HETATM   27  C21 UNL     1      29.275  29.983  37.635  1.00  0.00     0.209 C 
BRANCH  27  28
HETATM   28  C22 UNL     1      30.026  30.357  38.929  1.00  0.00     0.262 C 
BRANCH  28  29
HETATM   29  N1  UNL     1      29.450  29.755  40.239  1.00  0.00    -0.077 N 
HETATM   30  C23 UNL     1      28.622  30.768  40.990  1.00  0.00     0.271 C 
HETATM   31  C24 UNL     1      28.601  28.557  39.848  1.00  0.00     0.271 C 
HETATM   32  C25 UNL     1      30.577  29.247  41.149  1.00  0.00     0.271 C 
ENDBRANCH  28  29
ENDBRANCH  27  28
ENDBRANCH  26  27
ENDBRANCH  23  26
ENDBRANCH  22  23
ENDBRANCH  21  22
ENDBRANCH  20  21
ENDBRANCH  19  20
ENDBRANCH  18  19
ENDBRANCH  17  18
ENDBRANCH   1  17
TORSDOF 24
