REMARK  15 active torsions:
REMARK  status: ('A' for Active; 'I' for Inactive)
REMARK    1  A    between atoms: C1_1  and  C2_2 
REMARK    2  A    between atoms: C1_1  and  C3_3 
REMARK    3  A    between atoms: C4_4  and  C6_6 
REMARK    4  A    between atoms: C5_5  and  C11_11 
REMARK    5  A    between atoms: C6_6  and  C7_7 
REMARK    6  A    between atoms: C7_7  and  C8_8 
REMARK    7  A    between atoms: C8_8  and  C9_9 
REMARK    8  A    between atoms: C9_9  and  C10_10 
REMARK    9  A    between atoms: C10_10  and  P1_19 
REMARK   10  A    between atoms: C11_11  and  C12_12 
REMARK   11  A    between atoms: C13_13  and  C14_14 
REMARK   12  A    between atoms: C14_14  and  C15_15 
REMARK   13  A    between atoms: C15_15  and  C16_16 
REMARK   14  A    between atoms: C16_16  and  C17_17 
REMARK   15  A    between atoms: P1_19  and  O2_22 
ROOT
HETATM    1  C2  UNL     1      30.982  24.806  39.148  1.00  0.00    -0.027 C 
HETATM    2  C4  UNL     1      30.777  25.930  38.441  1.00  0.00    -0.030 C 
ENDROOT
BRANCH   1   3
HETATM    3  C1  UNL     1      31.770  24.654  40.418  1.00  0.00     0.053 C 
BRANCH   3   4
HETATM    4  C3  UNL     1      30.986  25.150  41.599  1.00  0.00    -0.027 C 
HETATM    5  C5  UNL     1      31.277  26.190  42.399  1.00  0.00    -0.027 C 
BRANCH   5   6
HETATM    6  C11 UNL     1      32.430  27.145  42.281  1.00  0.00     0.053 C 
BRANCH   6   7
HETATM    7  C12 UNL     1      32.437  28.118  43.425  1.00  0.00    -0.027 C 
HETATM    8  C13 UNL     1      33.502  28.677  44.023  1.00  0.00    -0.030 C 
BRANCH   8   9
HETATM    9  C14 UNL     1      34.952  28.442  43.706  1.00  0.00     0.027 C 
BRANCH   9  10
HETATM   10  C15 UNL     1      35.722  27.769  44.847  1.00  0.00     0.004 C 
BRANCH  10  11
HETATM   11  C16 UNL     1      36.060  26.301  44.567  1.00  0.00    -0.000 C 
BRANCH  11  12
HETATM   12  C17 UNL     1      35.807  25.889  43.114  1.00  0.00    -0.005 C 
HETATM   13  C18 UNL     1      36.810  24.877  42.585  1.00  0.00     0.005 C 
ENDBRANCH  11  12
ENDBRANCH  10  11
ENDBRANCH   9  10
ENDBRANCH   8   9
ENDBRANCH   6   7
ENDBRANCH   5   6
ENDBRANCH   3   4
ENDBRANCH   1   3
BRANCH   2  14
HETATM   14  C6  UNL     1      31.340  27.293  38.727  1.00  0.00     0.027 C 
BRANCH  14  15
HETATM   15  C7  UNL     1      30.278  28.398  38.750  1.00  0.00     0.004 C 
BRANCH  15  16
HETATM   16  C8  UNL     1      29.501  28.545  40.064  1.00  0.00     0.001 C 
BRANCH  16  17
HETATM   17  C9  UNL     1      29.852  29.768  40.915  1.00  0.00     0.012 C 
BRANCH  17  18
HETATM   18  C10 UNL     1      28.665  30.609  41.378  1.00  0.00     0.137 C 
BRANCH  18  19
HETATM   19  P1  UNL     1      28.302  32.037  40.359  1.00  0.00     0.365 P 
HETATM   20  O1  UNL     1      27.493  33.096  41.049  1.00  0.00    -0.254 OA
HETATM   21  F1  UNL     1      27.628  31.645  38.995  1.00  0.00    -0.156 F 
BRANCH  19  22
HETATM   22  O2  UNL     1      29.753  32.585  39.897  1.00  0.00    -0.316 OA
HETATM   23  C19 UNL     1      30.148  32.420  38.552  1.00  0.00     0.213 C 
ENDBRANCH  19  22
ENDBRANCH  18  19
ENDBRANCH  17  18
ENDBRANCH  16  17
ENDBRANCH  15  16
ENDBRANCH  14  15
ENDBRANCH   2  14
TORSDOF 15
