REMARK  3 active torsions:
REMARK  status: ('A' for Active; 'I' for Inactive)
REMARK    1  A    between atoms: C8_9  and  N1_10 
REMARK    2  A    between atoms: C12_14  and  C13_16 
REMARK    3  A    between atoms: C13_16  and  C14_18 
ROOT
HETATM    1  C1  UNL     1      36.775  27.190  44.534  1.00  0.00     0.003 A 
HETATM    2  C2  UNL     1      36.807  26.681  43.239  1.00  0.00     0.026 A 
HETATM    3  C3  UNL     1      35.747  26.928  42.355  1.00  0.00     0.062 A 
HETATM    4  C4  UNL     1      34.638  27.704  42.743  1.00  0.00     0.076 A 
HETATM    5  C5  UNL     1      34.619  28.191  44.066  1.00  0.00     0.062 A 
HETATM    6  C6  UNL     1      35.680  27.942  44.948  1.00  0.00     0.026 A 
HETATM    7 CL1  UNL     1      35.854  26.205  40.787  1.00  0.00    -0.082 Cl
HETATM    8  C7  UNL     1      32.064  26.148  42.755  1.00  0.00     0.030 A 
HETATM    9  C8  UNL     1      32.337  27.164  41.823  1.00  0.00     0.039 A 
HETATM   10  N1  UNL     1      33.543  27.921  41.870  1.00  0.00    -0.353 N 
HETATM   11  C9  UNL     1      30.871  25.423  42.707  1.00  0.00     0.002 A 
HETATM   12  C10 UNL     1      29.922  25.711  41.735  1.00  0.00     0.001 A 
HETATM   13  C11 UNL     1      30.156  26.737  40.822  1.00  0.00     0.010 A 
HETATM   14  C12 UNL     1      31.347  27.485  40.865  1.00  0.00    -0.021 A 
HETATM   15 CL2  UNL     1      33.307  29.148  44.672  1.00  0.00    -0.082 Cl
HETATM   16 NA1  UNL     1      33.195  27.261  42.036  1.00  0.00     0.000 Na
HETATM   17  H5  UNL     1      33.867  28.059  40.886  1.00  0.00     0.166 HD
ENDROOT
BRANCH  14  18
HETATM   18  C13 UNL     1      31.515  28.631  39.888  1.00  0.00     0.153 C 
BRANCH  18  19
HETATM   19  C14 UNL     1      30.350  29.618  39.938  1.00  0.00     0.177 C 
HETATM   20  O1  UNL     1      30.166  30.193  41.048  1.00  0.00    -0.648 OA
HETATM   21  O2  UNL     1      29.729  29.766  38.841  1.00  0.00    -0.648 OA
ENDBRANCH  18  19
ENDBRANCH  14  18
TORSDOF 3
