REMARK  4 active torsions:
REMARK  status: ('A' for Active; 'I' for Inactive)
REMARK    1  A    between atoms: C4_4  and  N1_15 
REMARK       I    between atoms: N1_15  and  C15_16 
REMARK    2  A    between atoms: C15_16  and  C16_17 
REMARK    3  A    between atoms: C19_21  and  C22_24 
REMARK    4  A    between atoms: C22_24  and  O2_25 
ROOT
HETATM    1  C1  UNL     1      28.535  30.398  38.061  1.00  0.00    -0.043 A 
HETATM    2  C2  UNL     1      28.315  30.194  39.441  1.00  0.00    -0.041 A 
HETATM    3  C3  UNL     1      29.355  29.622  40.213  1.00  0.00     0.038 A 
HETATM    4  C4  UNL     1      30.601  29.290  39.668  1.00  0.00     0.035 A 
HETATM    5  C5  UNL     1      30.820  29.536  38.322  1.00  0.00     0.030 A 
HETATM    6  C6  UNL     1      29.804  30.082  37.533  1.00  0.00     0.011 A 
HETATM    7  C7  UNL     1      27.464  30.987  37.132  1.00  0.00    -0.020 C 
HETATM    8  C8  UNL     1      26.065  30.956  37.786  1.00  0.00     0.015 C 
HETATM    9  C9  UNL     1      26.100  31.438  39.226  1.00  0.00     0.015 C 
HETATM   10  C10 UNL     1      26.979  30.533  40.119  1.00  0.00    -0.020 C 
HETATM   11  C11 UNL     1      27.852  32.442  36.789  1.00  0.00     0.020 C 
HETATM   12  C12 UNL     1      27.348  30.191  35.810  1.00  0.00     0.020 C 
HETATM   13  C13 UNL     1      27.185  31.299  41.448  1.00  0.00     0.020 C 
HETATM   14  C14 UNL     1      26.233  29.216  40.427  1.00  0.00     0.020 C 
ENDROOT
BRANCH   4  15
HETATM   15  N1  UNL     1      31.565  28.737  40.538  1.00  0.00    -0.323 N 
HETATM   16  C15 UNL     1      31.979  27.419  40.600  1.00  0.00     0.256 C 
HETATM   17  O1  UNL     1      31.538  26.474  39.959  1.00  0.00    -0.267 OA
HETATM   18  H20 UNL     1      31.937  29.371  41.232  1.00  0.00     0.169 HD
BRANCH  16  19
HETATM   19  C16 UNL     1      33.055  27.148  41.597  1.00  0.00     0.032 A 
HETATM   20  C17 UNL     1      33.149  27.978  42.722  1.00  0.00     0.018 A 
HETATM   21  C18 UNL     1      34.142  27.755  43.681  1.00  0.00     0.019 A 
HETATM   22  C19 UNL     1      35.040  26.693  43.527  1.00  0.00     0.037 A 
HETATM   23  C20 UNL     1      34.934  25.852  42.411  1.00  0.00     0.019 A 
HETATM   24  C21 UNL     1      33.942  26.074  41.450  1.00  0.00     0.018 A 
BRANCH  22  25
HETATM   25  C22 UNL     1      36.110  26.415  44.517  1.00  0.00     0.176 C 
HETATM   26  O3  UNL     1      36.636  27.238  45.243  1.00  0.00    -0.646 OA
BRANCH  25  27
HETATM   27  O2  UNL     1      36.467  25.120  44.550  1.00  0.00    -0.773 OA
HETATM   28  H25 UNL     1      36.023  24.771  45.351  1.00  0.00     0.167 HD
ENDBRANCH  25  27
ENDBRANCH  22  25
ENDBRANCH  16  19
ENDBRANCH   4  15
TORSDOF 4
