REMARK  TG100-115
REMARK  6 active torsions:
REMARK  status: ('A' for Active; 'I' for Inactive)
REMARK    1  A    between atoms: O_1  and  C_20 
REMARK    2  A    between atoms: O_2  and  C_21 
REMARK    3  A    between atoms: N_7  and  C_19 
REMARK    4  A    between atoms: N_8  and  C_26 
REMARK    5  A    between atoms: C_9  and  C_11 
REMARK    6  A    between atoms: C_10  and  C_12 
ROOT
ATOM      1  O           0       3.536   3.018   1.933  0.00  0.00    -0.359 OA
ATOM      2  H           0       4.307   3.556   1.685  0.00  0.00     0.217 HD
ENDROOT
BRANCH   1   3
ATOM      3  C           0       2.883   2.635   0.802  0.00  0.00     0.089 A 
ATOM      4  C           0       1.735   1.848   0.892  0.00  0.00     0.025 A 
ATOM      5  C           0       1.065   1.452  -0.267  0.00  0.00     0.021 A 
ATOM      6  C           0       1.548   1.847  -1.517  0.00  0.00     0.002 A 
ATOM      7  C           0       2.696   2.634  -1.607  0.00  0.00     0.002 A 
ATOM      8  C           0       3.363   3.028  -0.447  0.00  0.00     0.024 A 
BRANCH   5   9
ATOM      9  C           0      -0.124   0.639  -0.175  0.00  0.00     0.099 A 
ATOM     10  N           0      -1.274   1.326  -0.084  0.00  0.00    -0.238 NA
ATOM     11  C           0      -2.412   0.611   0.006  0.00  0.00     0.151 A 
ATOM     12  C           0      -2.418  -0.785   0.006  0.00  0.00     0.202 A 
ATOM     13  C           0      -3.648   1.222   0.104  0.00  0.00     0.173 A 
ATOM     14  N           0      -1.255  -1.441  -0.086  0.00  0.00    -0.223 NA
ATOM     15  N           0      -3.563  -1.472   0.097  0.00  0.00    -0.041 NA
ATOM     16  C           0      -0.116  -0.729  -0.176  0.00  0.00     0.101 A 
ATOM     17  C           0      -4.705  -0.765   0.187  0.00  0.00     0.724 A 
ATOM     18  N           0      -4.819   0.568   0.196  0.00  0.00    -0.043 NA
BRANCH  16  19
ATOM     19  C           0       1.087  -1.522  -0.271  0.00  0.00     0.021 A 
ATOM     20  C           0       1.766  -1.905   0.887  0.00  0.00     0.025 A 
ATOM     21  C           0       2.929  -2.670   0.795  0.00  0.00     0.089 A 
ATOM     22  C           0       3.415  -3.053  -0.455  0.00  0.00     0.024 A 
ATOM     23  C           0       2.738  -2.671  -1.613  0.00  0.00     0.002 A 
ATOM     24  C           0       1.575  -1.906  -1.521  0.00  0.00     0.002 A 
BRANCH  21  25
ATOM     25  O           0       3.589  -3.045   1.925  0.00  0.00    -0.359 OA
ATOM     26  H           0       4.370  -3.568   1.675  0.00  0.00     0.217 HD
ENDBRANCH  21  25
ENDBRANCH  16  19
BRANCH  17  27
ATOM     27  N           0      -5.903  -1.506   0.281  0.00  0.00    -0.231 N 
ATOM     28  H           0      -6.785  -1.018   0.350  0.00  0.00     0.174 HD
ATOM     29  H           0      -5.864  -2.516   0.277  0.00  0.00     0.174 HD
ENDBRANCH  17  27
BRANCH  13  30
ATOM     30  N           0      -3.689   2.641   0.107  0.00  0.00    -0.381 N 
ATOM     31  H           0      -4.602   3.074   0.170  0.00  0.00     0.157 HD
ATOM     32  H           0      -2.948   3.143  -0.366  0.00  0.00     0.157 HD
ENDBRANCH  13  30
ENDBRANCH   5   9
ENDBRANCH   1   3
TORSDOF 6
