REMARK  8 active torsions:
REMARK  status: ('A' for Active; 'I' for Inactive)
REMARK    1  A    between atoms: N1_1  and  C1_2 
REMARK    2  A    between atoms: C1_2  and  S1_3 
REMARK    3  A    between atoms: S1_3  and  C2_5 
REMARK    4  A    between atoms: C6_9  and  C10_13 
REMARK    5  A    between atoms: C10_13  and  C11_14 
REMARK    6  A    between atoms: C11_14  and  S2_15 
REMARK    7  A    between atoms: S2_15  and  C12_16 
REMARK    8  A    between atoms: C12_16  and  N4_18 
ROOT
HETATM    1  C2  UNL     1      34.533  27.325  43.715  1.00  0.00     0.087 A 
HETATM    2  C3  UNL     1      34.173  26.361  42.616  1.00  0.00     0.049 A 
HETATM    3  C4  UNL     1      32.821  26.546  42.094  1.00  0.00    -0.057 A 
HETATM    4  C5  UNL     1      32.624  27.412  41.039  1.00  0.00     0.014 A 
HETATM    5  C6  UNL     1      31.367  27.635  40.491  1.00  0.00    -0.057 A 
HETATM    6  C7  UNL     1      30.291  26.966  41.023  1.00  0.00     0.007 A 
HETATM    7  C8  UNL     1      30.505  26.107  42.073  1.00  0.00     0.001 A 
HETATM    8  C9  UNL     1      31.738  25.868  42.635  1.00  0.00     0.007 A 
HETATM    9 BR1  UNL     1      32.957  27.568  42.592  1.00  0.00    -0.113 Br
HETATM   10 BR2  UNL     1      32.959  27.567  42.593  1.00  0.00    -0.113 Br
HETATM   11  H19 UNL     1      31.760  28.375  42.072  1.00  0.00     0.113 HD
HETATM   12  H20 UNL     1      31.759  28.376  42.072  1.00  0.00     0.113 HD
ENDROOT
BRANCH   5  13
HETATM   13  C10 UNL     1      31.178  28.563  39.365  1.00  0.00     0.049 C 
BRANCH  13  14
HETATM   14  C11 UNL     1      30.465  29.821  39.800  1.00  0.00     0.087 C 
BRANCH  14  15
HETATM   15  S2  UNL     1      30.143  30.848  38.351  1.00  0.00    -0.093 SA
BRANCH  15  16
HETATM   16  C12 UNL     1      30.278  32.577  38.707  1.00  0.00     0.152 C 
HETATM   17  N3  UNL     1      31.211  33.261  38.167  1.00  0.00    -0.278 NA
HETATM   18  H16 UNL     1      31.887  32.804  37.521  1.00  0.00     0.189 HD
BRANCH  16  19
HETATM   19  N4  UNL     1      29.367  33.204  39.580  1.00  0.00    -0.379 N 
HETATM   20  H17 UNL     1      29.370  32.963  40.596  1.00  0.00     0.158 HD
HETATM   21  H18 UNL     1      28.706  33.900  39.172  1.00  0.00     0.158 HD
ENDBRANCH  16  19
ENDBRANCH  15  16
ENDBRANCH  14  15
ENDBRANCH  13  14
ENDBRANCH   5  13
BRANCH   1  22
HETATM   22  S1  UNL     1      36.208  27.045  44.334  1.00  0.00    -0.093 SA
BRANCH  22  23
HETATM   23  C1  UNL     1      37.391  27.888  43.323  1.00  0.00     0.152 C 
HETATM   24  N2  UNL     1      37.174  28.086  42.085  1.00  0.00    -0.278 NA
HETATM   25  H3  UNL     1      36.362  27.831  41.516  1.00  0.00     0.189 HD
BRANCH  23  26
HETATM   26  N1  UNL     1      38.609  28.340  43.891  1.00  0.00    -0.379 N 
HETATM   27  H1  UNL     1      39.526  27.940  43.588  1.00  0.00     0.158 HD
HETATM   28  H2  UNL     1      38.657  29.086  44.631  1.00  0.00     0.158 HD
ENDBRANCH  23  26
ENDBRANCH  22  23
ENDBRANCH   1  22
TORSDOF 8
