REMARK  18 active torsions:
REMARK  status: ('A' for Active; 'I' for Inactive)
REMARK    1  A    between atoms: C2_2  and  C3_3 
REMARK    2  A    between atoms: C3_3  and  C4_4 
REMARK    3  A    between atoms: C4_4  and  C5_5 
REMARK    4  A    between atoms: C5_5  and  C6_6 
REMARK    5  A    between atoms: C6_6  and  C7_7 
REMARK    6  A    between atoms: C7_7  and  C8_8 
REMARK    7  A    between atoms: C8_8  and  C9_9 
REMARK    8  A    between atoms: C9_9  and  C10_10 
REMARK    9  A    between atoms: C10_10  and  C11_11 
REMARK   10  A    between atoms: C11_11  and  C12_12 
REMARK   11  A    between atoms: C12_12  and  C13_13 
REMARK   12  A    between atoms: C13_13  and  C14_14 
REMARK   13  A    between atoms: C14_14  and  C15_15 
REMARK   14  A    between atoms: C15_15  and  C16_16 
REMARK       I    between atoms: C16_16  and  N1_17 
REMARK   15  A    between atoms: N1_17  and  C17_19 
REMARK   16  A    between atoms: C17_19  and  C18_20 
REMARK   17  A    between atoms: C18_20  and  C19_21 
REMARK   18  A    between atoms: C24_27  and  O2_30 
ROOT
HETATM    1  C16 UNL     1      31.239  24.415  39.132  1.00  0.00     0.217 C 
HETATM    2  N1  UNL     1      31.271  25.759  38.820  1.00  0.00    -0.361 N 
HETATM    3  O1  UNL     1      30.915  23.546  38.330  1.00  0.00    -0.274 OA
HETATM    4  H32 UNL     1      31.292  26.419  39.587  1.00  0.00     0.162 HD
ENDROOT
BRANCH   1   5
HETATM    5  C15 UNL     1      31.677  24.130  40.557  1.00  0.00     0.103 C 
BRANCH   5   6
HETATM    6  C14 UNL     1      31.624  25.381  41.432  1.00  0.00     0.009 C 
BRANCH   6   7
HETATM    7  C13 UNL     1      32.518  25.297  42.673  1.00  0.00     0.000 C 
BRANCH   7   8
HETATM    8  C12 UNL     1      34.002  25.497  42.356  1.00  0.00     0.000 C 
BRANCH   8   9
HETATM    9  C11 UNL     1      34.255  26.399  41.142  1.00  0.00     0.000 C 
BRANCH   9  10
HETATM   10  C10 UNL     1      35.741  26.633  40.857  1.00  0.00     0.000 C 
BRANCH  10  11
HETATM   11  C9  UNL     1      36.665  26.234  42.014  1.00  0.00     0.000 C 
BRANCH  11  12
HETATM   12  C8  UNL     1      37.649  27.317  42.470  1.00  0.00     0.000 C 
BRANCH  12  13
HETATM   13  C7  UNL     1      37.425  27.911  43.862  1.00  0.00     0.000 C 
BRANCH  13  14
HETATM   14  C6  UNL     1      36.395  27.192  44.734  1.00  0.00     0.000 C 
BRANCH  14  15
HETATM   15  C5  UNL     1      35.145  27.993  45.121  1.00  0.00     0.000 C 
BRANCH  15  16
HETATM   16  C4  UNL     1      34.366  28.579  43.937  1.00  0.00     0.000 C 
BRANCH  16  17
HETATM   17  C3  UNL     1      32.967  29.118  44.253  1.00  0.00    -0.000 C 
BRANCH  17  18
HETATM   18  C2  UNL     1      31.792  28.319  43.681  1.00  0.00    -0.005 C 
HETATM   19  C1  UNL     1      31.437  28.688  42.249  1.00  0.00     0.005 C 
ENDBRANCH  17  18
ENDBRANCH  16  17
ENDBRANCH  15  16
ENDBRANCH  14  15
ENDBRANCH  13  14
ENDBRANCH  12  13
ENDBRANCH  11  12
ENDBRANCH  10  11
ENDBRANCH   9  10
ENDBRANCH   8   9
ENDBRANCH   7   8
ENDBRANCH   6   7
ENDBRANCH   5   6
ENDBRANCH   1   5
BRANCH   2  20
HETATM   20  C17 UNL     1      30.758  26.247  37.552  1.00  0.00     0.127 C 
BRANCH  20  21
HETATM   21  C18 UNL     1      30.881  27.768  37.398  1.00  0.00     0.060 C 
BRANCH  21  22
HETATM   22  C19 UNL     1      30.012  28.521  38.363  1.00  0.00    -0.029 A 
HETATM   23  C20 UNL     1      30.012  29.935  38.594  1.00  0.00     0.001 A 
HETATM   24  C21 UNL     1      29.036  30.202  39.556  1.00  0.00     0.043 A 
HETATM   25  C23 UNL     1      30.749  31.014  38.068  1.00  0.00     0.050 A 
HETATM   26  N2  UNL     1      28.478  28.995  39.911  1.00  0.00    -0.365 N 
HETATM   27  C26 UNL     1      28.758  31.496  40.016  1.00  0.00     0.033 A 
HETATM   28  C22 UNL     1      29.052  27.980  39.196  1.00  0.00     0.096 A 
HETATM   29  H37 UNL     1      27.748  28.884  40.600  1.00  0.00     0.165 HD
HETATM   30  C25 UNL     1      29.496  32.553  39.473  1.00  0.00     0.039 A 
HETATM   31  C24 UNL     1      30.473  32.307  38.514  1.00  0.00     0.066 A 
BRANCH  31  32
HETATM   32  O2  UNL     1      31.199  33.327  37.969  1.00  0.00    -0.361 OA
HETATM   33  H42 UNL     1      30.770  34.168  38.193  1.00  0.00     0.217 HD
ENDBRANCH  31  32
ENDBRANCH  21  22
ENDBRANCH  20  21
ENDBRANCH   2  20
TORSDOF 18
