REMARK  14 active torsions:
REMARK  status: ('A' for Active; 'I' for Inactive)
REMARK    1  A    between atoms: C2_2  and  C12_13 
REMARK    2  A    between atoms: C3_3  and  C6_7 
REMARK    3  A    between atoms: C6_7  and  C7_8 
REMARK    4  A    between atoms: C7_8  and  C8_9 
REMARK    5  A    between atoms: C8_9  and  C9_10 
REMARK    6  A    between atoms: C9_10  and  C10_11 
REMARK    7  A    between atoms: C10_11  and  C11_12 
REMARK    8  A    between atoms: C11_12  and  C20_22 
REMARK    9  A    between atoms: C13_14  and  C14_15 
REMARK   10  A    between atoms: C14_15  and  C15_16 
REMARK   11  A    between atoms: C15_16  and  C16_17 
REMARK   12  A    between atoms: C16_17  and  C17_18 
REMARK   13  A    between atoms: C17_18  and  C18_19 
REMARK   14  A    between atoms: C20_22  and  O4_24 
ROOT
HETATM    1  C1  UNL     1      32.289  25.129  40.799  1.00  0.00    -0.014 A 
HETATM    2  C2  UNL     1      32.832  26.376  41.434  1.00  0.00     0.042 A 
HETATM    3  C3  UNL     1      31.833  26.705  42.571  1.00  0.00     0.071 A 
HETATM    4  C4  UNL     1      30.748  25.678  42.333  1.00  0.00     0.154 A 
HETATM    5  C5  UNL     1      31.113  24.722  41.280  1.00  0.00     0.047 A 
HETATM    6  O1  UNL     1      29.689  25.597  42.935  1.00  0.00    -0.293 OA
ENDROOT
BRANCH   3   7
HETATM    7  C6  UNL     1      31.324  28.149  42.486  1.00  0.00     0.013 C 
BRANCH   7   8
HETATM    8  C7  UNL     1      31.179  28.638  41.040  1.00  0.00     0.001 C 
BRANCH   8   9
HETATM    9  C8  UNL     1      29.733  28.606  40.532  1.00  0.00     0.000 C 
BRANCH   9  10
HETATM   10  C9  UNL     1      29.603  28.055  39.111  1.00  0.00     0.001 C 
BRANCH  10  11
HETATM   11  C10 UNL     1      30.937  27.647  38.471  1.00  0.00     0.010 C 
BRANCH  11  12
HETATM   12  C11 UNL     1      30.853  26.424  37.555  1.00  0.00     0.110 C 
BRANCH  12  13
HETATM   13  C20 UNL     1      30.949  26.769  36.091  1.00  0.00     0.139 C 
HETATM   14  O3  UNL     1      30.447  26.174  35.153  1.00  0.00    -0.650 OA
BRANCH  13  15
HETATM   15  O4  UNL     1      31.726  27.848  35.879  1.00  0.00    -0.776 OA
HETATM   16  H30 UNL     1      32.297  27.584  35.126  1.00  0.00     0.167 HD
ENDBRANCH  13  15
ENDBRANCH  12  13
ENDBRANCH  11  12
ENDBRANCH  10  11
ENDBRANCH   9  10
ENDBRANCH   8   9
ENDBRANCH   7   8
ENDBRANCH   3   7
BRANCH   2  17
HETATM   17  C12 UNL     1      34.242  26.269  41.961  1.00  0.00    -0.014 C 
HETATM   18  C13 UNL     1      34.676  25.539  43.002  1.00  0.00     0.046 C 
BRANCH  18  19
HETATM   19  C14 UNL     1      36.118  25.565  43.392  1.00  0.00     0.149 C 
HETATM   20  O2  UNL     1      36.982  25.048  42.688  1.00  0.00    -0.293 OA
BRANCH  19  21
HETATM   21  C15 UNL     1      36.469  26.285  44.678  1.00  0.00     0.083 C 
BRANCH  21  22
HETATM   22  C16 UNL     1      35.984  27.731  44.622  1.00  0.00     0.008 C 
BRANCH  22  23
HETATM   23  C17 UNL     1      36.718  28.577  43.580  1.00  0.00     0.000 C 
BRANCH  23  24
HETATM   24  C18 UNL     1      38.240  28.514  43.714  1.00  0.00    -0.005 C 
HETATM   25  C19 UNL     1      38.894  28.088  42.408  1.00  0.00     0.005 C 
ENDBRANCH  23  24
ENDBRANCH  22  23
ENDBRANCH  21  22
ENDBRANCH  19  21
ENDBRANCH  18  19
ENDBRANCH   2  17
TORSDOF 14
