REMARK  14 active torsions:
REMARK  status: ('A' for Active; 'I' for Inactive)
REMARK    1  A    between atoms: C2_2  and  C7_7 
REMARK    2  A    between atoms: C3_3  and  O2_10 
REMARK    3  A    between atoms: C4_4  and  C9_11 
REMARK    4  A    between atoms: C5_5  and  O3_14 
REMARK    5  A    between atoms: C9_11  and  C10_12 
REMARK    6  A    between atoms: O3_14  and  C12_15 
REMARK    7  A    between atoms: C12_15  and  C13_16 
REMARK    8  A    between atoms: C13_16  and  C14_17 
REMARK    9  A    between atoms: C14_17  and  O4_18 
REMARK   10  A    between atoms: O4_18  and  C15_19 
REMARK   11  A    between atoms: C18_22  and  O5_25 
REMARK   12  A    between atoms: O5_25  and  C21_26 
REMARK   13  A    between atoms: C21_26  and  C22_27 
REMARK   14  A    between atoms: C22_27  and  O6_28 
ROOT
HETATM    1  C12 UNL     1      29.609  29.776  38.368  1.00  0.00     0.178 C 
ENDROOT
BRANCH   1   2
HETATM    2  O3  UNL     1      30.233  29.262  37.188  1.00  0.00    -0.350 OA
BRANCH   2   3
HETATM    3  C5  UNL     1      29.595  29.589  36.019  1.00  0.00     0.077 A 
HETATM    4  C4  UNL     1      29.958  28.865  34.864  1.00  0.00     0.009 A 
HETATM    5  C3  UNL     1      29.326  29.186  33.648  1.00  0.00     0.088 A 
HETATM    6  C2  UNL     1      28.361  30.200  33.583  1.00  0.00     0.043 A 
HETATM    7  C1  UNL     1      27.976  30.864  34.756  1.00  0.00     0.021 A 
HETATM    8  C6  UNL     1      28.591  30.558  35.970  1.00  0.00     0.038 A 
BRANCH   4   9
HETATM    9  C9  UNL     1      31.072  27.839  34.944  1.00  0.00     0.044 C 
BRANCH   9  10
HETATM   10  C10 UNL     1      30.517  26.411  35.011  1.00  0.00     0.000 C 
HETATM   11  C11 UNL     1      30.480  25.901  36.440  1.00  0.00     0.005 C 
ENDBRANCH   9  10
ENDBRANCH   4   9
BRANCH   5  12
HETATM   12  O2  UNL     1      29.636  28.490  32.512  1.00  0.00    -0.359 OA
HETATM   13  H6  UNL     1      29.147  27.641  32.545  1.00  0.00     0.217 HD
ENDBRANCH   5  12
BRANCH   6  14
HETATM   14  C7  UNL     1      27.679  30.595  32.322  1.00  0.00     0.158 C 
HETATM   15  C8  UNL     1      27.853  31.994  31.793  1.00  0.00     0.097 C 
HETATM   16  O1  UNL     1      26.964  29.773  31.745  1.00  0.00    -0.293 OA
ENDBRANCH   6  14
ENDBRANCH   2   3
ENDBRANCH   1   2
BRANCH   1  17
HETATM   17  C13 UNL     1      28.917  28.611  39.062  1.00  0.00     0.053 C 
BRANCH  17  18
HETATM   18  C14 UNL     1      29.912  27.576  39.567  1.00  0.00     0.178 C 
BRANCH  18  19
HETATM   19  O4  UNL     1      29.919  27.649  40.991  1.00  0.00    -0.351 OA
BRANCH  19  20
HETATM   20  C15 UNL     1      31.095  27.350  41.621  1.00  0.00     0.068 A 
HETATM   21  C16 UNL     1      31.794  28.183  42.490  1.00  0.00     0.039 A 
HETATM   22  C17 UNL     1      32.997  27.745  43.058  1.00  0.00     0.039 A 
HETATM   23  C18 UNL     1      33.511  26.478  42.770  1.00  0.00     0.069 A 
HETATM   24  C19 UNL     1      32.801  25.640  41.913  1.00  0.00     0.039 A 
HETATM   25  C20 UNL     1      31.598  26.076  41.348  1.00  0.00     0.039 A 
BRANCH  23  26
HETATM   26  O5  UNL     1      34.695  26.192  43.390  1.00  0.00    -0.341 OA
BRANCH  26  27
HETATM   27  C21 UNL     1      35.799  25.813  42.582  1.00  0.00     0.285 C 
BRANCH  27  28
HETATM   28  C22 UNL     1      36.223  26.847  41.555  1.00  0.00     0.164 C 
HETATM   29  O7  UNL     1      36.942  27.811  41.765  1.00  0.00    -0.648 OA
BRANCH  28  30
HETATM   30  O6  UNL     1      35.748  26.603  40.318  1.00  0.00    -0.775 OA
HETATM   31  H26 UNL     1      35.511  25.653  40.330  1.00  0.00     0.167 HD
ENDBRANCH  28  30
ENDBRANCH  27  28
ENDBRANCH  26  27
ENDBRANCH  23  26
ENDBRANCH  19  20
ENDBRANCH  18  19
ENDBRANCH  17  18
ENDBRANCH   1  17
TORSDOF 14
