REMARK  7 active torsions:
REMARK  status: ('A' for Active; 'I' for Inactive)
REMARK    1  A    between atoms: C7_7  and  C14_15 
REMARK    2  A    between atoms: N1_9  and  C9_10 
REMARK    3  A    between atoms: C9_10  and  C10_11 
REMARK    4  A    between atoms: C10_11  and  C11_12 
REMARK    5  A    between atoms: C11_12  and  C12_13 
REMARK    6  A    between atoms: C14_15  and  C15_16 
REMARK    7  A    between atoms: C21_23  and  C25_27 
ROOT
HETATM    1  C1  UNL     1      30.147  27.476  37.831  1.00  0.00     0.015 A 
HETATM    2  C2  UNL     1      30.367  27.948  39.146  1.00  0.00     0.006 A 
HETATM    3  C3  UNL     1      30.839  27.030  40.095  1.00  0.00     0.045 A 
HETATM    4  C4  UNL     1      31.102  25.687  39.776  1.00  0.00     0.030 A 
HETATM    5  C5  UNL     1      30.877  25.258  38.466  1.00  0.00     0.002 A 
HETATM    6  C6  UNL     1      30.404  26.140  37.506  1.00  0.00     0.001 A 
HETATM    7  C7  UNL     1      30.215  29.217  39.811  1.00  0.00     0.043 A 
HETATM    8  C8  UNL     1      30.588  29.011  41.128  1.00  0.00     0.107 A 
HETATM    9  N1  UNL     1      30.964  27.708  41.288  1.00  0.00    -0.355 N 
ENDROOT
BRANCH   7  10
HETATM   10  C14 UNL     1      29.766  30.525  39.328  1.00  0.00     0.195 C 
HETATM   11  O1  UNL     1      30.281  31.580  39.693  1.00  0.00    -0.287 OA
BRANCH  10  12
HETATM   12  C15 UNL     1      28.718  30.595  38.298  1.00  0.00     0.026 A 
HETATM   13  C16 UNL     1      27.309  30.577  38.586  1.00  0.00    -0.005 A 
HETATM   14  C17 UNL     1      26.467  30.637  37.435  1.00  0.00    -0.025 A 
HETATM   15  C21 UNL     1      26.652  30.498  39.877  1.00  0.00    -0.046 A 
HETATM   16  C18 UNL     1      27.000  30.729  36.137  1.00  0.00     0.012 A 
HETATM   17  C24 UNL     1      25.073  30.607  37.556  1.00  0.00     0.012 A 
HETATM   18  C19 UNL     1      28.369  30.767  35.911  1.00  0.00     0.002 A 
HETATM   19  C20 UNL     1      29.230  30.702  36.990  1.00  0.00     0.016 A 
HETATM   20  C23 UNL     1      24.463  30.519  38.797  1.00  0.00     0.001 A 
HETATM   21  C22 UNL     1      25.243  30.467  39.942  1.00  0.00     0.008 A 
BRANCH  15  22
HETATM   22  C25 UNL     1      27.445  30.458  41.176  1.00  0.00     0.035 C 
HETATM   23  C26 UNL     1      27.695  31.771  41.917  1.00  0.00     0.010 C 
ENDBRANCH  15  22
ENDBRANCH  10  12
ENDBRANCH   7  10
BRANCH   9  24
HETATM   24  C9  UNL     1      31.408  27.138  42.552  1.00  0.00     0.128 C 
BRANCH  24  25
HETATM   25  C10 UNL     1      32.808  27.619  42.936  1.00  0.00     0.020 C 
BRANCH  25  26
HETATM   26  C11 UNL     1      33.897  26.575  42.667  1.00  0.00     0.001 C 
BRANCH  26  27
HETATM   27  C12 UNL     1      34.423  26.550  41.229  1.00  0.00    -0.004 C 
HETATM   28  C13 UNL     1      35.936  26.518  41.111  1.00  0.00     0.005 C 
ENDBRANCH  26  27
ENDBRANCH  25  26
ENDBRANCH  24  25
ENDBRANCH   9  24
TORSDOF 7
