REMARK  15 active torsions:
REMARK  status: ('A' for Active; 'I' for Inactive)
REMARK    1  A    between atoms: C1_1  and  C5_5 
REMARK    2  A    between atoms: C2_2  and  C12_12 
REMARK    3  A    between atoms: C3_3  and  C6_6 
REMARK    4  A    between atoms: C4_4  and  C5_5 
REMARK    5  A    between atoms: C6_6  and  C7_7 
REMARK    6  A    between atoms: C7_7  and  C8_8 
REMARK    7  A    between atoms: C8_8  and  C9_9 
REMARK    8  A    between atoms: C9_9  and  C10_10 
REMARK    9  A    between atoms: C10_10  and  C11_11 
REMARK   10  A    between atoms: C11_11  and  C20_20 
REMARK   11  A    between atoms: C12_12  and  C13_13 
REMARK   12  A    between atoms: C14_14  and  C15_15 
REMARK   13  A    between atoms: C15_15  and  C16_16 
REMARK   14  A    between atoms: C17_17  and  C18_18 
REMARK   15  A    between atoms: C20_20  and  O2_22 
ROOT
HETATM    1  C3  UNL     1      30.876  24.918  38.400  1.00  0.00    -0.030 C 
HETATM    2  C4  UNL     1      31.277  24.021  39.316  1.00  0.00    -0.027 C 
ENDROOT
BRANCH   2   3
HETATM    3  C5  UNL     1      31.866  24.302  40.668  1.00  0.00     0.053 C 
BRANCH   3   4
HETATM    4  C1  UNL     1      30.835  24.893  41.588  1.00  0.00    -0.027 C 
HETATM    5  C2  UNL     1      31.030  25.767  42.591  1.00  0.00    -0.027 C 
BRANCH   5   6
HETATM    6  C12 UNL     1      32.321  26.406  43.015  1.00  0.00     0.053 C 
BRANCH   6   7
HETATM    7  C13 UNL     1      32.776  27.421  42.006  1.00  0.00    -0.027 C 
HETATM    8  C14 UNL     1      33.874  27.368  41.232  1.00  0.00    -0.027 C 
BRANCH   8   9
HETATM    9  C15 UNL     1      34.883  26.258  41.152  1.00  0.00     0.053 C 
BRANCH   9  10
HETATM   10  C16 UNL     1      36.247  26.738  41.555  1.00  0.00    -0.027 C 
HETATM   11  C17 UNL     1      36.786  26.764  42.786  1.00  0.00    -0.031 C 
BRANCH  11  12
HETATM   12  C18 UNL     1      36.158  26.312  44.073  1.00  0.00     0.022 C 
HETATM   13  C19 UNL     1      35.796  27.497  44.956  1.00  0.00     0.009 C 
ENDBRANCH  11  12
ENDBRANCH   9  10
ENDBRANCH   8   9
ENDBRANCH   6   7
ENDBRANCH   5   6
ENDBRANCH   3   4
ENDBRANCH   2   3
BRANCH   1  14
HETATM   14  C6  UNL     1      30.907  26.414  38.530  1.00  0.00     0.027 C 
BRANCH  14  15
HETATM   15  C7  UNL     1      29.563  27.060  38.889  1.00  0.00     0.004 C 
BRANCH  15  16
HETATM   16  C8  UNL     1      29.614  28.553  39.235  1.00  0.00     0.000 C 
BRANCH  16  17
HETATM   17  C9  UNL     1      30.896  29.260  38.798  1.00  0.00     0.001 C 
BRANCH  17  18
HETATM   18  C10 UNL     1      30.654  30.147  37.574  1.00  0.00     0.010 C 
BRANCH  18  19
HETATM   19  C11 UNL     1      29.587  31.198  37.854  1.00  0.00     0.110 C 
BRANCH  19  20
HETATM   20  C20 UNL     1      30.139  32.318  38.686  1.00  0.00     0.139 C 
HETATM   21  O1  UNL     1      29.784  32.624  39.812  1.00  0.00    -0.650 OA
BRANCH  20  22
HETATM   22  O2  UNL     1      31.113  33.005  38.061  1.00  0.00    -0.776 OA
HETATM   23  H32 UNL     1      30.865  33.942  38.203  1.00  0.00     0.167 HD
ENDBRANCH  20  22
ENDBRANCH  19  20
ENDBRANCH  18  19
ENDBRANCH  17  18
ENDBRANCH  16  17
ENDBRANCH  15  16
ENDBRANCH  14  15
ENDBRANCH   1  14
TORSDOF 15
