REMARK  17 active torsions:
REMARK  status: ('A' for Active; 'I' for Inactive)
REMARK    1  A    between atoms: C1_1  and  C2_2 
REMARK    2  A    between atoms: C1_1  and  C5_5 
REMARK    3  A    between atoms: C3_3  and  C8_8 
REMARK    4  A    between atoms: C4_4  and  C6_6 
REMARK    5  A    between atoms: C6_6  and  C7_7 
REMARK    6  A    between atoms: C7_7  and  C10_10 
REMARK    7  A    between atoms: C8_8  and  C9_9 
REMARK    8  A    between atoms: C9_9  and  C15_15 
REMARK    9  A    between atoms: C10_10  and  C11_11 
REMARK   10  A    between atoms: C11_11  and  C12_12 
REMARK   11  A    between atoms: C12_12  and  C13_13 
REMARK   12  A    between atoms: C13_13  and  C14_14 
REMARK   13  A    between atoms: C14_14  and  C18_18 
REMARK   14  A    between atoms: C15_15  and  C16_16 
REMARK       I    between atoms: C18_18  and  N1_20 
REMARK   15  A    between atoms: N1_20  and  C19_21 
REMARK   16  A    between atoms: C19_21  and  C20_22 
REMARK   17  A    between atoms: C20_22  and  O2_23 
ROOT
HETATM    1  C10 UNL     1      30.617  25.920  38.950  1.00  0.00     0.000 C 
ENDROOT
BRANCH   1   2
HETATM    2  C7  UNL     1      31.254  24.544  39.150  1.00  0.00     0.004 C 
BRANCH   2   3
HETATM    3  C6  UNL     1      31.587  24.224  40.611  1.00  0.00     0.027 C 
BRANCH   3   4
HETATM    4  C4  UNL     1      30.641  24.938  41.536  1.00  0.00    -0.030 C 
HETATM    5  C5  UNL     1      30.966  25.737  42.569  1.00  0.00    -0.027 C 
BRANCH   5   6
HETATM    6  C1  UNL     1      32.341  26.114  43.044  1.00  0.00     0.053 C 
BRANCH   6   7
HETATM    7  C2  UNL     1      32.812  27.420  42.472  1.00  0.00    -0.027 C 
HETATM    8  C3  UNL     1      33.805  27.593  41.583  1.00  0.00    -0.030 C 
BRANCH   8   9
HETATM    9  C8  UNL     1      34.586  26.513  40.889  1.00  0.00     0.027 C 
BRANCH   9  10
HETATM   10  C9  UNL     1      36.081  26.475  41.228  1.00  0.00     0.004 C 
BRANCH  10  11
HETATM   11  C15 UNL     1      36.436  26.444  42.717  1.00  0.00    -0.000 C 
BRANCH  11  12
HETATM   12  C16 UNL     1      36.276  25.098  43.422  1.00  0.00    -0.005 C 
HETATM   13  C17 UNL     1      37.113  23.982  42.817  1.00  0.00     0.005 C 
ENDBRANCH  11  12
ENDBRANCH  10  11
ENDBRANCH   9  10
ENDBRANCH   8   9
ENDBRANCH   6   7
ENDBRANCH   5   6
ENDBRANCH   3   4
ENDBRANCH   2   3
ENDBRANCH   1   2
BRANCH   1  14
HETATM   14  C11 UNL     1      31.581  27.064  38.622  1.00  0.00     0.000 C 
BRANCH  14  15
HETATM   15  C12 UNL     1      31.162  28.447  39.128  1.00  0.00     0.000 C 
BRANCH  15  16
HETATM   16  C13 UNL     1      30.037  28.396  40.166  1.00  0.00     0.009 C 
BRANCH  16  17
HETATM   17  C14 UNL     1      30.056  29.604  41.102  1.00  0.00     0.103 C 
BRANCH  17  18
HETATM   18  C18 UNL     1      28.982  30.605  40.724  1.00  0.00     0.217 C 
HETATM   19  O1  UNL     1      28.851  31.681  41.303  1.00  0.00    -0.274 OA
HETATM   20  N1  UNL     1      28.160  30.187  39.707  1.00  0.00    -0.359 N 
HETATM   21  H32 UNL     1      28.224  29.229  39.362  1.00  0.00     0.162 HD
BRANCH  20  22
HETATM   22  C19 UNL     1      26.986  30.946  39.307  1.00  0.00     0.153 C 
BRANCH  22  23
HETATM   23  C20 UNL     1      27.100  31.466  37.868  1.00  0.00     0.132 C 
HETATM   24  C21 UNL     1      25.903  31.094  36.998  1.00  0.00     0.041 C 
BRANCH  23  25
HETATM   25  O2  UNL     1      27.203  32.898  37.915  1.00  0.00    -0.394 OA
HETATM   26  H36 UNL     1      26.666  33.205  38.668  1.00  0.00     0.210 HD
ENDBRANCH  23  25
ENDBRANCH  22  23
ENDBRANCH  20  22
ENDBRANCH  17  18
ENDBRANCH  16  17
ENDBRANCH  15  16
ENDBRANCH  14  15
ENDBRANCH   1  14
TORSDOF 17
