REMARK  10 active torsions:
REMARK  status: ('A' for Active; 'I' for Inactive)
REMARK    1  A    between atoms: C1_1  and  O2_28 
REMARK    2  A    between atoms: C7_8  and  C10_11 
REMARK    3  A    between atoms: C10_11  and  C11_12 
REMARK    4  A    between atoms: C11_12  and  C12_13 
REMARK    5  A    between atoms: C14_15  and  C15_16 
REMARK    6  A    between atoms: C15_16  and  C17_18 
REMARK    7  A    between atoms: C17_18  and  C18_19 
REMARK    8  A    between atoms: C19_20  and  C20_21 
REMARK    9  A    between atoms: C20_21  and  C22_23 
REMARK   10  A    between atoms: C22_23  and  C23_24 
ROOT
HETATM    1  C10 UNL     1      30.071  30.810  39.696  1.00  0.00     0.042 C 
ENDROOT
BRANCH   1   2
HETATM    2  C7  UNL     1      28.567  31.112  39.931  1.00  0.00     0.065 C 
HETATM    3  O1  UNL     1      27.980  31.025  38.616  1.00  0.00    -0.339 OA
HETATM    4  C4  UNL     1      26.630  30.813  38.517  1.00  0.00     0.082 A 
HETATM    5  C3  UNL     1      26.084  30.977  37.233  1.00  0.00    -0.025 A 
HETATM    6  C5  UNL     1      25.820  30.438  39.603  1.00  0.00    -0.015 A 
HETATM    7  C2  UNL     1      24.713  30.782  37.044  1.00  0.00     0.046 A 
HETATM    8  C27 UNL     1      26.958  31.355  36.071  1.00  0.00     0.051 C 
HETATM    9  C1  UNL     1      23.900  30.438  38.123  1.00  0.00     0.072 A 
HETATM   10  C6  UNL     1      24.427  30.280  39.412  1.00  0.00    -0.020 A 
HETATM   11  C28 UNL     1      23.525  29.897  40.557  1.00  0.00     0.052 C 
HETATM   12  C9  UNL     1      26.439  30.239  40.961  1.00  0.00     0.045 C 
HETATM   13  C8  UNL     1      27.948  30.067  40.866  1.00  0.00     0.043 C 
HETATM   14  C13 UNL     1      28.390  32.550  40.444  1.00  0.00     0.046 C 
BRANCH   9  15
HETATM   15  O2  UNL     1      22.561  30.245  37.923  1.00  0.00    -0.360 OA
HETATM   16  H36 UNL     1      22.104  30.319  38.776  1.00  0.00     0.217 HD
ENDBRANCH   9  15
ENDBRANCH   1   2
BRANCH   1  17
HETATM   17  C11 UNL     1      30.469  30.454  38.258  1.00  0.00     0.030 C 
BRANCH  17  18
HETATM   18  C12 UNL     1      30.720  28.974  38.133  1.00  0.00    -0.024 C 
HETATM   19  C14 UNL     1      30.720  28.210  37.022  1.00  0.00    -0.087 C 
HETATM   20  C16 UNL     1      30.417  28.702  35.633  1.00  0.00     0.043 C 
BRANCH  19  21
HETATM   21  C15 UNL     1      31.017  26.724  37.129  1.00  0.00     0.037 C 
BRANCH  21  22
HETATM   22  C17 UNL     1      30.240  26.046  38.264  1.00  0.00     0.031 C 
BRANCH  22  23
HETATM   23  C18 UNL     1      31.162  25.582  39.360  1.00  0.00    -0.024 C 
HETATM   24  C19 UNL     1      31.192  25.988  40.644  1.00  0.00    -0.087 C 
HETATM   25  C21 UNL     1      30.317  27.069  41.218  1.00  0.00     0.043 C 
BRANCH  24  26
HETATM   26  C20 UNL     1      32.184  25.366  41.615  1.00  0.00     0.037 C 
BRANCH  26  27
HETATM   27  C22 UNL     1      33.039  26.378  42.393  1.00  0.00     0.031 C 
BRANCH  27  28
HETATM   28  C23 UNL     1      34.334  25.800  42.897  1.00  0.00    -0.024 C 
HETATM   29  C24 UNL     1      35.539  25.833  42.294  1.00  0.00    -0.091 C 
HETATM   30  C25 UNL     1      36.745  25.220  42.955  1.00  0.00     0.042 C 
HETATM   31  C26 UNL     1      35.810  26.441  40.944  1.00  0.00     0.042 C 
ENDBRANCH  27  28
ENDBRANCH  26  27
ENDBRANCH  24  26
ENDBRANCH  22  23
ENDBRANCH  21  22
ENDBRANCH  19  21
ENDBRANCH  17  18
ENDBRANCH   1  17
TORSDOF 10
