REMARK  6 active torsions:
REMARK  status: ('A' for Active; 'I' for Inactive)
REMARK    1  A    between atoms: C3_3  and  O2_22 
REMARK    2  A    between atoms: C6_6  and  C7_7 
REMARK    3  A    between atoms: C7_7  and  C8_8 
REMARK    4  A    between atoms: N1_11  and  C17_20 
REMARK    5  A    between atoms: C17_20  and  C18_21 
REMARK    6  A    between atoms: C18_21  and  N2_24 
ROOT
HETATM    1  C8  UNL     1      30.893  26.766  40.878  1.00  0.00     0.050 A 
HETATM    2  C9  UNL     1      30.960  25.913  39.780  1.00  0.00     0.023 A 
HETATM    3  N1  UNL     1      30.562  26.625  38.669  1.00  0.00    -0.347 N 
HETATM    4  C10 UNL     1      30.223  27.918  39.022  1.00  0.00     0.047 A 
HETATM    5  C11 UNL     1      30.443  28.041  40.396  1.00  0.00     0.007 A 
HETATM    6  C12 UNL     1      29.754  28.991  38.241  1.00  0.00     0.049 A 
HETATM    7  C13 UNL     1      29.523  30.213  38.877  1.00  0.00     0.013 A 
HETATM    8  C14 UNL     1      29.755  30.375  40.237  1.00  0.00     0.020 A 
HETATM    9  C15 UNL     1      30.219  29.299  41.002  1.00  0.00     0.016 A 
HETATM   10 BR1  UNL     1      28.894  31.679  37.859  1.00  0.00    -0.051 Br
HETATM   11  C16 UNL     1      31.382  24.481  39.724  1.00  0.00     0.069 C 
ENDROOT
BRANCH   1  12
HETATM   12  C7  UNL     1      31.265  26.388  42.241  1.00  0.00     0.195 C 
HETATM   13  O1  UNL     1      30.517  25.733  42.964  1.00  0.00    -0.287 OA
BRANCH  12  14
HETATM   14  C6  UNL     1      32.583  26.816  42.785  1.00  0.00     0.015 A 
HETATM   15  C2  UNL     1      32.684  28.081  43.377  1.00  0.00     0.018 A 
HETATM   16  C1  UNL     1      33.907  28.528  43.891  1.00  0.00     0.037 A 
HETATM   17  C3  UNL     1      35.040  27.718  43.807  1.00  0.00     0.068 A 
HETATM   18  C4  UNL     1      34.940  26.463  43.198  1.00  0.00     0.037 A 
HETATM   19  C5  UNL     1      33.723  26.013  42.681  1.00  0.00     0.018 A 
BRANCH  17  20
HETATM   20  O2  UNL     1      36.288  28.030  44.269  1.00  0.00    -0.356 OA
HETATM   21  C19 UNL     1      37.271  28.357  43.294  1.00  0.00     0.210 C 
ENDBRANCH  17  20
ENDBRANCH  12  14
ENDBRANCH   1  12
BRANCH   3  22
HETATM   22  C17 UNL     1      30.530  26.115  37.300  1.00  0.00     0.159 C 
BRANCH  22  23
HETATM   23  C18 UNL     1      31.330  27.012  36.342  1.00  0.00     0.292 C 
BRANCH  23  24
HETATM   24  N2  UNL     1      30.951  26.976  34.923  1.00  0.00     0.094 N 
HETATM   25  C20 UNL     1      30.854  28.294  34.273  1.00  0.00     0.298 C 
HETATM   26  C21 UNL     1      29.413  28.694  33.914  1.00  0.00     0.198 C 
HETATM   27  O3  UNL     1      28.747  27.744  33.072  1.00  0.00    -0.388 OA
HETATM   28  C22 UNL     1      29.232  26.403  33.231  1.00  0.00     0.198 C 
HETATM   29  C23 UNL     1      29.777  26.133  34.641  1.00  0.00     0.298 C 
ENDBRANCH  23  24
ENDBRANCH  22  23
ENDBRANCH   3  22
TORSDOF 6
