REMARK  9 active torsions:
REMARK  status: ('A' for Active; 'I' for Inactive)
REMARK    1  A    between atoms: C2_2  and  C24_27 
REMARK    2  A    between atoms: C7_8  and  C15_17 
REMARK    3  A    between atoms: N2_9  and  C8_10 
REMARK    4  A    between atoms: C8_10  and  C9_11 
REMARK    5  A    between atoms: C15_17  and  C16_18 
REMARK    6  A    between atoms: C19_21  and  O1_24 
REMARK    7  A    between atoms: O1_24  and  C22_25 
REMARK       I    between atoms: C24_27  and  N3_28 
REMARK    8  A    between atoms: N3_28  and  C25_30 
REMARK    9  A    between atoms: N3_28  and  C26_31 
ROOT
HETATM    1  C1  UNL     1      30.382  29.049  36.465  1.00  0.00     0.019 A 
HETATM    2  C2  UNL     1      30.603  27.696  36.192  1.00  0.00     0.034 A 
HETATM    3  C3  UNL     1      30.885  26.777  37.210  1.00  0.00     0.051 A 
HETATM    4  C4  UNL     1      30.892  27.244  38.530  1.00  0.00     0.086 A 
HETATM    5  C5  UNL     1      30.652  28.590  38.792  1.00  0.00     0.065 A 
HETATM    6  C6  UNL     1      30.394  29.524  37.779  1.00  0.00     0.033 A 
HETATM    7  N1  UNL     1      31.091  26.547  39.691  1.00  0.00    -0.233 NA
HETATM    8  C7  UNL     1      30.960  27.422  40.672  1.00  0.00     0.111 A 
HETATM    9  N2  UNL     1      30.746  28.689  40.166  1.00  0.00    -0.333 N 
ENDROOT
BRANCH   8  10
HETATM   10  C15 UNL     1      31.007  27.070  42.129  1.00  0.00     0.117 C 
BRANCH  10  11
HETATM   11  C16 UNL     1      32.409  27.094  42.702  1.00  0.00    -0.051 A 
HETATM   12  C17 UNL     1      32.890  28.218  43.387  1.00  0.00     0.010 A 
HETATM   13  C18 UNL     1      34.183  28.231  43.923  1.00  0.00     0.037 A 
HETATM   14  C19 UNL     1      35.021  27.128  43.768  1.00  0.00     0.068 A 
HETATM   15  C20 UNL     1      34.553  26.015  43.067  1.00  0.00     0.037 A 
HETATM   16  C21 UNL     1      33.262  25.995  42.537  1.00  0.00     0.010 A 
BRANCH  14  17
HETATM   17  O1  UNL     1      36.301  27.006  44.227  1.00  0.00    -0.352 OA
BRANCH  17  18
HETATM   18  C22 UNL     1      37.252  28.020  43.913  1.00  0.00     0.171 C 
HETATM   19  C23 UNL     1      37.668  27.945  42.454  1.00  0.00     0.034 C 
ENDBRANCH  17  18
ENDBRANCH  14  17
ENDBRANCH  10  11
ENDBRANCH   8  10
BRANCH   9  20
HETATM   20  C8  UNL     1      30.571  29.918  40.921  1.00  0.00     0.135 C 
BRANCH  20  21
HETATM   21  C9  UNL     1      29.098  30.309  41.164  1.00  0.00     0.004 C 
HETATM   22  C10 UNL     1      28.124  29.260  40.592  1.00  0.00     0.006 C 
HETATM   23  C11 UNL     1      26.736  29.852  40.376  1.00  0.00     0.000 C 
HETATM   24  C12 UNL     1      26.759  30.983  39.349  1.00  0.00     0.000 C 
HETATM   25  C13 UNL     1      28.106  31.705  39.272  1.00  0.00     0.000 C 
HETATM   26  C14 UNL     1      28.814  31.727  40.620  1.00  0.00     0.006 C 
ENDBRANCH  20  21
ENDBRANCH   9  20
BRANCH   2  27
HETATM   27  C24 UNL     1      30.567  27.214  34.800  1.00  0.00     0.253 C 
HETATM   28  N3  UNL     1      29.780  27.901  33.872  1.00  0.00    -0.349 N 
HETATM   29  O2  UNL     1      31.238  26.221  34.528  1.00  0.00    -0.267 OA
BRANCH  28  30
HETATM   30  C25 UNL     1      28.799  28.936  34.220  1.00  0.00     0.121 C 
HETATM   31  C28 UNL     1      28.613  29.961  33.112  1.00  0.00     0.026 C 
ENDBRANCH  28  30
BRANCH  28  32
HETATM   32  C26 UNL     1      29.780  27.409  32.495  1.00  0.00     0.121 C 
HETATM   33  C27 UNL     1      28.720  26.339  32.265  1.00  0.00     0.026 C 
ENDBRANCH  28  32
ENDBRANCH   2  27
TORSDOF 9
