REMARK  7 active torsions:
REMARK  status: ('A' for Active; 'I' for Inactive)
REMARK    1  A    between atoms: C1_1  and  O4_22 
REMARK    2  A    between atoms: C2_2  and  O2_9 
REMARK    3  A    between atoms: C3_3  and  O1_7 
REMARK    4  A    between atoms: C9_11  and  N1_12 
REMARK    5  A    between atoms: N1_12  and  C10_13 
REMARK    6  A    between atoms: C10_13  and  C11_14 
REMARK    7  A    between atoms: C12_15  and  O3_20 
ROOT
HETATM    1  C1  UNL     1      29.928  29.733  37.729  1.00  0.00     0.104 A 
HETATM    2  C2  UNL     1      29.636  30.928  38.396  1.00  0.00     0.135 A 
HETATM    3  C3  UNL     1      29.719  31.030  39.766  1.00  0.00     0.104 A 
HETATM    4  C4  UNL     1      30.103  29.917  40.483  1.00  0.00     0.047 A 
HETATM    5  C5  UNL     1      30.406  28.704  39.876  1.00  0.00    -0.051 A 
HETATM    6  C6  UNL     1      30.306  28.653  38.495  1.00  0.00     0.047 A 
HETATM    7  C8  UNL     1      30.813  27.532  40.660  1.00  0.00     0.068 A 
HETATM    8  C9  UNL     1      32.311  27.457  40.860  1.00  0.00     0.274 A 
HETATM    9 CL1  UNL     1      31.719  28.194  40.244  1.00  0.00    -0.145 Cl
HETATM   10  H26 UNL     1      32.511  27.366  41.007  1.00  0.00     0.145 HD
ENDROOT
BRANCH   3  11
HETATM   11  O1  UNL     1      29.434  32.204  40.449  1.00  0.00    -0.353 OA
HETATM   12  C7  UNL     1      28.218  32.353  41.150  1.00  0.00     0.210 C 
ENDBRANCH   3  11
BRANCH   1  13
HETATM   13  O4  UNL     1      29.839  29.647  36.349  1.00  0.00    -0.353 OA
HETATM   14  C18 UNL     1      30.570  28.621  35.708  1.00  0.00     0.210 C 
ENDBRANCH   1  13
BRANCH   8  15
HETATM   15  N1  UNL     1      32.654  26.296  41.630  1.00  0.00     0.087 N 
HETATM   16  H10 UNL     1      32.245  26.290  42.580  1.00  0.00     0.316 HD
BRANCH  15  17
HETATM   17  C10 UNL     1      34.085  26.146  41.611  1.00  0.00     0.310 C 
BRANCH  17  18
HETATM   18  C11 UNL     1      34.720  26.618  42.865  1.00  0.00     0.003 A 
HETATM   19  C12 UNL     1      35.642  25.796  43.480  1.00  0.00     0.076 A 
HETATM   20  C13 UNL     1      36.272  26.190  44.666  1.00  0.00     0.037 A 
HETATM   21  C14 UNL     1      35.975  27.411  45.234  1.00  0.00     0.003 A 
HETATM   22  C15 UNL     1      35.053  28.232  44.617  1.00  0.00     0.001 A 
HETATM   23  C16 UNL     1      34.434  27.836  43.446  1.00  0.00     0.012 A 
BRANCH  19  24
HETATM   24  O3  UNL     1      35.938  24.568  42.904  1.00  0.00    -0.355 OA
HETATM   25  C17 UNL     1      37.291  24.216  42.688  1.00  0.00     0.210 C 
ENDBRANCH  19  24
ENDBRANCH  17  18
ENDBRANCH  15  17
ENDBRANCH   8  15
BRANCH   2  26
HETATM   26  O2  UNL     1      29.249  32.046  37.666  1.00  0.00    -0.351 OA
HETATM   27  C19 UNL     1      27.905  32.303  37.326  1.00  0.00     0.210 C 
ENDBRANCH   2  26
TORSDOF 7
