REMARK  10 active torsions:
REMARK  status: ('A' for Active; 'I' for Inactive)
REMARK    1  A    between atoms: C1_1  and  C2_2 
REMARK    2  A    between atoms: C1_1  and  C3_4 
REMARK    3  A    between atoms: C3_4  and  C11_13 
REMARK    4  A    between atoms: N1_6  and  C7_9 
REMARK    5  A    between atoms: C7_9  and  C8_10 
REMARK    6  A    between atoms: C8_10  and  C9_11 
REMARK    7  A    between atoms: C9_11  and  C10_12 
REMARK    8  A    between atoms: C10_12  and  C21_23 
REMARK    9  A    between atoms: C11_13  and  C12_14 
REMARK   10  A    between atoms: C21_23  and  O3_25 
ROOT
HETATM    1  C2  UNL     1      31.758  27.042  41.277  1.00  0.00     0.038 A 
HETATM    2  C4  UNL     1      31.329  28.195  40.638  1.00  0.00     0.107 A 
HETATM    3  N1  UNL     1      30.849  27.868  39.403  1.00  0.00    -0.355 N 
HETATM    4  C5  UNL     1      30.937  26.508  39.205  1.00  0.00     0.045 A 
HETATM    5  C6  UNL     1      31.500  25.958  40.366  1.00  0.00     0.006 A 
HETATM    6  C17 UNL     1      30.567  25.721  38.099  1.00  0.00     0.030 A 
HETATM    7  C18 UNL     1      30.765  24.342  38.170  1.00  0.00     0.002 A 
HETATM    8  C19 UNL     1      31.310  23.763  39.306  1.00  0.00     0.001 A 
HETATM    9  C20 UNL     1      31.677  24.554  40.402  1.00  0.00     0.014 A 
ENDROOT
BRANCH   1  10
HETATM   10  C1  UNL     1      32.339  27.070  42.629  1.00  0.00     0.162 C 
HETATM   11  O1  UNL     1      31.864  27.821  43.481  1.00  0.00    -0.292 OA
BRANCH  10  12
HETATM   12  C3  UNL     1      33.509  26.147  42.942  1.00  0.00     0.097 C 
BRANCH  12  13
HETATM   13  C11 UNL     1      34.948  26.673  42.676  1.00  0.00    -0.019 C 
HETATM   14  C13 UNL     1      35.035  28.206  42.848  1.00  0.00     0.020 C 
HETATM   15  C14 UNL     1      35.370  26.344  41.223  1.00  0.00     0.020 C 
BRANCH  13  16
HETATM   16  C12 UNL     1      35.888  25.993  43.718  1.00  0.00    -0.085 C 
HETATM   17  C15 UNL     1      36.307  26.808  44.922  1.00  0.00     0.043 C 
HETATM   18  C16 UNL     1      36.338  24.727  43.620  1.00  0.00     0.014 C 
ENDBRANCH  13  16
ENDBRANCH  12  13
ENDBRANCH  10  12
ENDBRANCH   1  10
BRANCH   3  19
HETATM   19  C7  UNL     1      30.308  28.835  38.457  1.00  0.00     0.128 C 
BRANCH  19  20
HETATM   20  C8  UNL     1      28.897  29.281  38.841  1.00  0.00     0.021 C 
BRANCH  20  21
HETATM   21  C9  UNL     1      28.515  30.643  38.254  1.00  0.00     0.012 C 
BRANCH  21  22
HETATM   22  C10 UNL     1      29.723  31.527  37.942  1.00  0.00     0.110 C 
BRANCH  22  23
HETATM   23  C21 UNL     1      29.992  32.507  39.052  1.00  0.00     0.139 C 
HETATM   24  O2  UNL     1      29.492  32.528  40.163  1.00  0.00    -0.650 OA
BRANCH  23  25
HETATM   25  O3  UNL     1      30.891  33.442  38.686  1.00  0.00    -0.776 OA
HETATM   26  H27 UNL     1      30.492  34.287  38.983  1.00  0.00     0.167 HD
ENDBRANCH  23  25
ENDBRANCH  22  23
ENDBRANCH  21  22
ENDBRANCH  20  21
ENDBRANCH  19  20
ENDBRANCH   3  19
TORSDOF 10
