REMARK  9 active torsions:
REMARK  status: ('A' for Active; 'I' for Inactive)
REMARK    1  A    between atoms: C1_1  and  C2_2 
REMARK       I    between atoms: C1_1  and  N1_4 
REMARK    2  A    between atoms: N1_4  and  C11_15 
REMARK    3  A    between atoms: N3_6  and  C9_13 
REMARK    4  A    between atoms: C9_13  and  C10_14 
REMARK    5  A    between atoms: C10_14  and  C14_20 
REMARK    6  A    between atoms: C11_15  and  C12_16 
REMARK    7  A    between atoms: C11_15  and  C13_17 
REMARK    8  A    between atoms: C12_16  and  C17_23 
REMARK       I    between atoms: C13_17  and  N4_18 
REMARK    9  A    between atoms: C14_20  and  C15_21 
ROOT
HETATM    1  C2  UNL     1      31.030  28.120  39.669  1.00  0.00     0.157 A 
HETATM    2  N2  UNL     1      31.516  28.493  40.865  1.00  0.00    -0.166 NA
HETATM    3  N3  UNL     1      31.852  27.342  41.471  1.00  0.00    -0.268 N 
HETATM    4  C3  UNL     1      31.636  26.224  40.705  1.00  0.00     0.065 A 
HETATM    5  C4  UNL     1      31.097  26.699  39.511  1.00  0.00     0.028 A 
HETATM    6  C5  UNL     1      31.855  24.860  40.946  1.00  0.00     0.032 A 
HETATM    7  C6  UNL     1      31.516  23.959  39.931  1.00  0.00     0.002 A 
HETATM    8  C7  UNL     1      30.987  24.406  38.722  1.00  0.00     0.001 A 
HETATM    9  C8  UNL     1      30.778  25.771  38.496  1.00  0.00     0.016 A 
ENDROOT
BRANCH   1  10
HETATM   10  C1  UNL     1      30.501  29.120  38.727  1.00  0.00     0.273 C 
HETATM   11  O1  UNL     1      30.860  29.210  37.553  1.00  0.00    -0.266 OA
HETATM   12  N1  UNL     1      29.618  30.032  39.283  1.00  0.00    -0.342 N 
HETATM   13  H1  UNL     1      29.663  30.134  40.291  1.00  0.00     0.163 HD
BRANCH  12  14
HETATM   14  C11 UNL     1      29.202  31.214  38.526  1.00  0.00     0.180 C 
BRANCH  14  15
HETATM   15  C12 UNL     1      27.670  31.225  38.311  1.00  0.00     0.013 C 
HETATM   16  C19 UNL     1      27.320  31.008  36.831  1.00  0.00     0.012 C 
BRANCH  15  17
HETATM   17  C17 UNL     1      26.922  30.202  39.198  1.00  0.00     0.002 C 
HETATM   18  C18 UNL     1      26.313  30.769  40.472  1.00  0.00     0.005 C 
ENDBRANCH  15  17
ENDBRANCH  14  15
BRANCH  14  19
HETATM   19  C13 UNL     1      29.675  32.420  39.367  1.00  0.00     0.238 C 
HETATM   20  N4  UNL     1      30.629  33.200  38.768  1.00  0.00    -0.368 N 
HETATM   21  H12 UNL     1      31.212  32.772  38.048  1.00  0.00     0.159 HD
HETATM   22  H13 UNL     1      31.086  33.876  39.367  1.00  0.00     0.159 HD
HETATM   23  O2  UNL     1      29.327  32.631  40.526  1.00  0.00    -0.271 OA
ENDBRANCH  14  19
ENDBRANCH  12  14
ENDBRANCH   1  10
BRANCH   3  24
HETATM   24  C9  UNL     1      32.396  27.385  42.816  1.00  0.00     0.151 C 
BRANCH  24  25
HETATM   25  C10 UNL     1      33.926  27.419  42.858  1.00  0.00     0.022 C 
BRANCH  25  26
HETATM   26  C14 UNL     1      34.544  26.052  43.164  1.00  0.00     0.001 C 
BRANCH  26  27
HETATM   27  C15 UNL     1      35.763  25.728  42.296  1.00  0.00    -0.004 C 
HETATM   28  C16 UNL     1      35.769  26.448  40.956  1.00  0.00     0.005 C 
ENDBRANCH  26  27
ENDBRANCH  25  26
ENDBRANCH  24  25
ENDBRANCH   3  24
TORSDOF 9
