REMARK  12 active torsions:
REMARK  status: ('A' for Active; 'I' for Inactive)
REMARK    1  A    between atoms: C3_3  and  N4_22 
REMARK    2  A    between atoms: C6_6  and  N3_10 
REMARK    3  A    between atoms: N3_10  and  C7_11 
REMARK    4  A    between atoms: C7_11  and  C8_12 
REMARK    5  A    between atoms: C8_12  and  C9_14 
REMARK    6  A    between atoms: C9_14  and  C10_15 
REMARK    7  A    between atoms: C9_14  and  O5_20 
REMARK    8  A    between atoms: C10_15  and  C11_16 
REMARK    9  A    between atoms: C10_15  and  O6_21 
REMARK   10  A    between atoms: C11_16  and  C12_17 
REMARK   11  A    between atoms: C11_16  and  O4_19 
REMARK   12  A    between atoms: C12_17  and  O3_18 
ROOT
HETATM    1  C7  UNL     1      29.515  30.130  36.980  1.00  0.00     0.173 C 
ENDROOT
BRANCH   1   2
HETATM    2  N3  UNL     1      30.789  29.808  37.649  1.00  0.00    -0.284 NA
HETATM    3  H3  UNL     1      31.574  29.990  37.007  1.00  0.00     0.128 HD
BRANCH   2   4
HETATM    4  C6  UNL     1      30.932  28.518  38.176  1.00  0.00     0.042 A 
HETATM    5  C1  UNL     1      30.942  27.353  37.367  1.00  0.00     0.028 A 
HETATM    6  C2  UNL     1      31.052  26.033  37.874  1.00  0.00     0.040 A 
HETATM    7  C3  UNL     1      31.134  25.788  39.255  1.00  0.00     0.136 A 
HETATM    8  C4  UNL     1      31.116  26.894  40.117  1.00  0.00     0.152 A 
HETATM    9  C5  UNL     1      31.007  28.245  39.574  1.00  0.00     0.141 A 
HETATM   10  N1  UNL     1      31.204  26.993  41.451  1.00  0.00    -0.100 NA
HETATM   11  N2  UNL     1      31.004  29.109  40.599  1.00  0.00    -0.101 NA
HETATM   12  O1  UNL     1      31.118  28.342  41.743  1.00  0.00    -0.106 OA
BRANCH   7  13
HETATM   13  N4  UNL     1      31.250  24.459  39.785  1.00  0.00    -0.113 N 
HETATM   14  O7  UNL     1      31.446  23.554  38.963  1.00  0.00    -0.532 OA
HETATM   15  O8  UNL     1      31.098  24.304  41.001  1.00  0.00    -0.532 OA
ENDBRANCH   7  13
ENDBRANCH   2   4
ENDBRANCH   1   2
BRANCH   1  16
HETATM   16  C8  UNL     1      28.520  30.753  37.962  1.00  0.00     0.171 C 
HETATM   17  O2  UNL     1      27.717  30.069  38.605  1.00  0.00    -0.294 OA
BRANCH  16  18
HETATM   18  C9  UNL     1      28.542  32.273  38.127  1.00  0.00     0.220 C 
BRANCH  18  19
HETATM   19  C10 UNL     1      28.985  32.663  39.544  1.00  0.00     0.185 C 
BRANCH  19  20
HETATM   20  C11 UNL     1      27.853  32.615  40.586  1.00  0.00     0.173 C 
BRANCH  20  21
HETATM   21  C12 UNL     1      28.108  31.705  41.792  1.00  0.00     0.198 C 
BRANCH  21  22
HETATM   22  O3  UNL     1      28.213  30.354  41.342  1.00  0.00    -0.398 OA
HETATM   23  H11 UNL     1      27.669  29.827  41.961  1.00  0.00     0.209 HD
ENDBRANCH  21  22
ENDBRANCH  20  21
BRANCH  20  24
HETATM   24  O4  UNL     1      27.646  33.948  41.097  1.00  0.00    -0.391 OA
HETATM   25  H12 UNL     1      27.320  34.478  40.342  1.00  0.00     0.210 HD
ENDBRANCH  20  24
ENDBRANCH  19  20
BRANCH  19  26
HETATM   26  O6  UNL     1      30.046  31.789  39.979  1.00  0.00    -0.390 OA
HETATM   27  H14 UNL     1      29.749  31.405  40.832  1.00  0.00     0.210 HD
ENDBRANCH  19  26
ENDBRANCH  18  19
BRANCH  18  28
HETATM   28  O5  UNL     1      27.256  32.833  37.861  1.00  0.00    -0.385 OA
HETATM   29  H13 UNL     1      27.167  33.620  38.435  1.00  0.00     0.210 HD
ENDBRANCH  18  28
ENDBRANCH  16  18
ENDBRANCH   1  16
TORSDOF 12
