REMARK  4 active torsions:
REMARK  status: ('A' for Active; 'I' for Inactive)
REMARK    1  A    between atoms: C6_6  and  N1_8 
REMARK    2  A    between atoms: C6_6  and  C7_9 
REMARK       I    between atoms: N1_8  and  C13_16 
REMARK    3  A    between atoms: C13_16  and  O2_17 
REMARK    4  A    between atoms: O2_17  and  C14_19 
ROOT
HETATM    1  C1  UNL     1      29.744  30.948  40.062  1.00  0.00     0.044 C 
HETATM    2  C2  UNL     1      29.367  32.432  40.077  1.00  0.00     0.004 C 
HETATM    3  C3  UNL     1      27.936  32.680  40.540  1.00  0.00     0.008 C 
HETATM    4  C4  UNL     1      27.391  31.537  41.378  1.00  0.00     0.081 C 
HETATM    5  C5  UNL     1      27.481  30.192  40.669  1.00  0.00     0.159 C 
HETATM    6  C6  UNL     1      28.597  30.008  39.586  1.00  0.00     0.124 C 
HETATM    7  O1  UNL     1      26.707  29.291  41.006  1.00  0.00    -0.295 OA
ENDROOT
BRANCH   6   8
HETATM    8  N1  UNL     1      29.071  28.622  39.727  1.00  0.00    -0.316 N 
HETATM    9  C13 UNL     1      30.084  28.235  40.553  1.00  0.00     0.362 C 
HETATM   10  O3  UNL     1      30.576  28.890  41.454  1.00  0.00    -0.238 OA
HETATM   11  H9  UNL     1      28.979  28.000  38.939  1.00  0.00     0.166 HD
BRANCH   9  12
HETATM   12  O2  UNL     1      30.452  26.982  40.193  1.00  0.00    -0.294 OA
BRANCH  12  13
HETATM   13  C14 UNL     1      31.402  26.234  40.994  1.00  0.00     0.061 C 
HETATM   14  C15 UNL     1      31.488  24.859  40.314  1.00  0.00     0.046 C 
HETATM   15  C16 UNL     1      30.893  26.039  42.427  1.00  0.00     0.046 C 
HETATM   16  C17 UNL     1      32.791  26.882  40.962  1.00  0.00     0.046 C 
ENDBRANCH  12  13
ENDBRANCH   9  12
ENDBRANCH   6   8
BRANCH   6  17
HETATM   17  C7  UNL     1      28.144  30.330  38.148  1.00  0.00    -0.001 A 
HETATM   18  C8  UNL     1      29.021  30.337  37.039  1.00  0.00     0.043 A 
HETATM   19  C9  UNL     1      28.563  30.661  35.753  1.00  0.00     0.024 A 
HETATM   20 CL1  UNL     1      30.696  29.910  37.141  1.00  0.00    -0.084 Cl
HETATM   21  C10 UNL     1      27.223  30.961  35.530  1.00  0.00     0.002 A 
HETATM   22  C11 UNL     1      26.331  30.918  36.590  1.00  0.00     0.001 A 
HETATM   23  C12 UNL     1      26.782  30.599  37.874  1.00  0.00     0.012 A 
ENDBRANCH   6  17
TORSDOF 4
