REMARK  16 active torsions:
REMARK  status: ('A' for Active; 'I' for Inactive)
REMARK    1  A    between atoms: C1_1  and  C2_2 
REMARK    2  A    between atoms: C1_1  and  C5_5 
REMARK    3  A    between atoms: C3_3  and  C12_13 
REMARK    4  A    between atoms: C4_4  and  C5_5 
REMARK    5  A    between atoms: C5_5  and  O1_6 
REMARK    6  A    between atoms: C6_7  and  C7_8 
REMARK    7  A    between atoms: C8_9  and  C9_10 
REMARK    8  A    between atoms: C9_10  and  C10_11 
REMARK    9  A    between atoms: C10_11  and  C11_12 
REMARK   10  A    between atoms: C11_12  and  C20_21 
REMARK   11  A    between atoms: C12_13  and  C13_14 
REMARK   12  A    between atoms: C14_15  and  C15_16 
REMARK   13  A    between atoms: C15_16  and  C16_17 
REMARK   14  A    between atoms: C16_17  and  C17_18 
REMARK   15  A    between atoms: C17_18  and  C18_19 
REMARK   16  A    between atoms: C20_21  and  O3_23 
ROOT
HETATM    1  C5  UNL     1      31.230  24.586  39.863  1.00  0.00     0.144 C 
ENDROOT
BRANCH   1   2
HETATM    2  C1  UNL     1      32.041  25.120  41.063  1.00  0.00     0.062 C 
BRANCH   2   3
HETATM    3  C2  UNL     1      31.225  25.422  42.298  1.00  0.00    -0.027 C 
HETATM    4  C3  UNL     1      31.106  26.604  42.927  1.00  0.00    -0.027 C 
BRANCH   4   5
HETATM    5  C12 UNL     1      31.710  27.922  42.532  1.00  0.00     0.053 C 
BRANCH   5   6
HETATM    6  C13 UNL     1      32.802  28.316  43.483  1.00  0.00    -0.027 C 
HETATM    7  C14 UNL     1      34.112  28.023  43.410  1.00  0.00    -0.030 C 
BRANCH   7   8
HETATM    8  C15 UNL     1      34.816  27.224  42.352  1.00  0.00     0.027 C 
BRANCH   8   9
HETATM    9  C16 UNL     1      36.183  26.743  42.845  1.00  0.00     0.004 C 
BRANCH   9  10
HETATM   10  C17 UNL     1      36.044  25.857  44.086  1.00  0.00    -0.000 C 
BRANCH  10  11
HETATM   11  C18 UNL     1      36.290  24.374  43.803  1.00  0.00    -0.005 C 
HETATM   12  C19 UNL     1      37.247  24.127  42.647  1.00  0.00     0.005 C 
ENDBRANCH  10  11
ENDBRANCH   9  10
ENDBRANCH   8   9
ENDBRANCH   7   8
ENDBRANCH   5   6
ENDBRANCH   4   5
ENDBRANCH   2   3
ENDBRANCH   1   2
BRANCH   1  13
HETATM   13  C4  UNL     1      30.837  25.640  38.866  1.00  0.00     0.005 C 
HETATM   14  C6  UNL     1      31.215  26.925  38.950  1.00  0.00    -0.002 C 
BRANCH  14  15
HETATM   15  C7  UNL     1      30.815  27.922  37.983  1.00  0.00    -0.004 C 
HETATM   16  C8  UNL     1      29.799  28.789  38.118  1.00  0.00    -0.027 C 
BRANCH  16  17
HETATM   17  C9  UNL     1      28.886  28.961  39.299  1.00  0.00     0.027 C 
BRANCH  17  18
HETATM   18  C10 UNL     1      29.119  30.251  40.093  1.00  0.00     0.014 C 
BRANCH  18  19
HETATM   19  C11 UNL     1      30.194  31.162  39.503  1.00  0.00     0.110 C 
BRANCH  19  20
HETATM   20  C20 UNL     1      29.619  32.422  38.918  1.00  0.00     0.139 C 
HETATM   21  O2  UNL     1      28.548  32.535  38.348  1.00  0.00    -0.650 OA
BRANCH  20  22
HETATM   22  O3  UNL     1      30.416  33.493  39.098  1.00  0.00    -0.776 OA
HETATM   23  H32 UNL     1      31.065  33.185  39.766  1.00  0.00     0.167 HD
ENDBRANCH  20  22
ENDBRANCH  19  20
ENDBRANCH  18  19
ENDBRANCH  17  18
ENDBRANCH  16  17
ENDBRANCH  14  15
ENDBRANCH   1  13
BRANCH   1  24
HETATM   24  O1  UNL     1      31.969  23.578  39.175  1.00  0.00    -0.391 OA
HETATM   25  H11 UNL     1      32.641  24.033  38.640  1.00  0.00     0.210 HD
ENDBRANCH   1  24
TORSDOF 16
