REMARK  19 active torsions:
REMARK  status: ('A' for Active; 'I' for Inactive)
REMARK    1  A    between atoms: C1_1  and  C2_2 
REMARK    2  A    between atoms: C1_1  and  C5_5 
REMARK    3  A    between atoms: C2_2  and  C14_14 
REMARK    4  A    between atoms: C3_3  and  C6_6 
REMARK    5  A    between atoms: C4_4  and  C5_5 
REMARK    6  A    between atoms: C6_6  and  C7_7 
REMARK    7  A    between atoms: C7_7  and  C8_8 
REMARK    8  A    between atoms: C8_8  and  C9_9 
REMARK    9  A    between atoms: C9_9  and  C10_10 
REMARK   10  A    between atoms: C10_10  and  C11_11 
REMARK   11  A    between atoms: C11_11  and  C12_12 
REMARK   12  A    between atoms: C12_12  and  C13_13 
REMARK       I    between atoms: C13_13  and  N1_19 
REMARK   13  A    between atoms: C14_14  and  C15_15 
REMARK   14  A    between atoms: C15_15  and  C16_16 
REMARK   15  A    between atoms: C16_16  and  C17_17 
REMARK   16  A    between atoms: N1_19  and  C19_20 
REMARK   17  A    between atoms: C19_20  and  C20_21 
REMARK   18  A    between atoms: C22_23  and  O1_27 
REMARK   19  A    between atoms: C23_24  and  O2_28 
ROOT
HETATM    1  C11 UNL     1      30.647  26.108  37.767  1.00  0.00     0.009 C 
ENDROOT
BRANCH   1   2
HETATM    2  C10 UNL     1      30.404  24.601  37.903  1.00  0.00     0.000 C 
BRANCH   2   3
HETATM    3  C9  UNL     1      31.208  23.949  39.032  1.00  0.00     0.000 C 
BRANCH   3   4
HETATM    4  C8  UNL     1      31.782  24.902  40.088  1.00  0.00     0.000 C 
BRANCH   4   5
HETATM    5  C7  UNL     1      31.211  24.794  41.507  1.00  0.00     0.004 C 
BRANCH   5   6
HETATM    6  C6  UNL     1      30.349  25.973  41.977  1.00  0.00     0.027 C 
BRANCH   6   7
HETATM    7  C3  UNL     1      30.730  27.317  41.426  1.00  0.00    -0.031 C 
HETATM    8  C4  UNL     1      31.490  28.245  42.026  1.00  0.00    -0.031 C 
BRANCH   8   9
HETATM    9  C5  UNL     1      32.161  28.121  43.366  1.00  0.00     0.027 C 
BRANCH   9  10
HETATM   10  C1  UNL     1      33.679  27.940  43.247  1.00  0.00     0.004 C 
BRANCH  10  11
HETATM   11  C2  UNL     1      34.082  26.490  42.967  1.00  0.00     0.000 C 
BRANCH  11  12
HETATM   12  C14 UNL     1      34.760  26.307  41.603  1.00  0.00     0.000 C 
BRANCH  12  13
HETATM   13  C15 UNL     1      36.251  26.659  41.583  1.00  0.00     0.000 C 
BRANCH  13  14
HETATM   14  C16 UNL     1      37.111  26.011  42.672  1.00  0.00    -0.000 C 
BRANCH  14  15
HETATM   15  C17 UNL     1      37.094  24.482  42.707  1.00  0.00    -0.005 C 
HETATM   16  C18 UNL     1      36.456  23.909  43.962  1.00  0.00     0.005 C 
ENDBRANCH  14  15
ENDBRANCH  13  14
ENDBRANCH  12  13
ENDBRANCH  11  12
ENDBRANCH  10  11
ENDBRANCH   9  10
ENDBRANCH   8   9
ENDBRANCH   6   7
ENDBRANCH   5   6
ENDBRANCH   4   5
ENDBRANCH   3   4
ENDBRANCH   2   3
ENDBRANCH   1   2
BRANCH   1  17
HETATM   17  C12 UNL     1      30.765  26.504  36.296  1.00  0.00     0.103 C 
BRANCH  17  18
HETATM   18  C13 UNL     1      30.668  28.002  36.074  1.00  0.00     0.217 C 
HETATM   19  N1  UNL     1      30.776  28.711  37.252  1.00  0.00    -0.357 N 
HETATM   20  H34 UNL     1      31.115  28.227  38.072  1.00  0.00     0.162 HD
HETATM   21  O3  UNL     1      30.477  28.522  34.981  1.00  0.00    -0.274 OA
BRANCH  19  22
HETATM   22  C19 UNL     1      30.780  30.155  37.280  1.00  0.00     0.161 C 
BRANCH  22  23
HETATM   23  C20 UNL     1      29.693  30.692  38.175  1.00  0.00    -0.038 A 
HETATM   24  C21 UNL     1      28.343  30.365  37.921  1.00  0.00     0.048 A 
HETATM   25  C22 UNL     1      27.328  30.856  38.742  1.00  0.00     0.101 A 
HETATM   26  C23 UNL     1      27.675  31.711  39.799  1.00  0.00     0.099 A 
HETATM   27  C24 UNL     1      28.999  32.048  40.066  1.00  0.00     0.040 A 
HETATM   28  C25 UNL     1      30.011  31.529  39.259  1.00  0.00     0.012 A 
BRANCH  25  29
HETATM   29  O1  UNL     1      25.984  30.597  38.619  1.00  0.00    -0.353 OA
HETATM   30  C26 UNL     1      25.414  30.781  37.326  1.00  0.00     0.210 C 
ENDBRANCH  25  29
BRANCH  26  31
HETATM   31  O2  UNL     1      26.700  32.236  40.607  1.00  0.00    -0.358 OA
HETATM   32  H40 UNL     1      26.858  31.823  41.483  1.00  0.00     0.217 HD
ENDBRANCH  26  31
ENDBRANCH  22  23
ENDBRANCH  19  22
ENDBRANCH  17  18
ENDBRANCH   1  17
TORSDOF 19
