REMARK  17 active torsions:
REMARK  status: ('A' for Active; 'I' for Inactive)
REMARK    1  A    between atoms: C1_1  and  C2_2 
REMARK    2  A    between atoms: C1_1  and  C3_3 
REMARK    3  A    between atoms: C2_2  and  C4_4 
REMARK    4  A    between atoms: C3_3  and  C5_5 
REMARK    5  A    between atoms: C4_4  and  C11_11 
REMARK    6  A    between atoms: C5_5  and  C6_6 
REMARK    7  A    between atoms: C6_6  and  C7_7 
REMARK    8  A    between atoms: C7_7  and  C8_8 
REMARK    9  A    between atoms: C8_8  and  C9_9 
REMARK   10  A    between atoms: C9_9  and  C10_10 
REMARK   11  A    between atoms: C10_10  and  C15_15 
REMARK   12  A    between atoms: C11_11  and  C12_12 
REMARK   13  A    between atoms: C12_12  and  C13_13 
REMARK   14  A    between atoms: C15_15  and  C16_16 
REMARK       I    between atoms: C16_16  and  N1_17 
REMARK   15  A    between atoms: N1_17  and  C17_18 
REMARK   16  A    between atoms: C17_18  and  C18_19 
REMARK   17  A    between atoms: C18_19  and  O1_20 
ROOT
HETATM    1  C8  UNL     1      31.367  25.456  40.078  1.00  0.00     0.000 C 
ENDROOT
BRANCH   1   2
HETATM    2  C7  UNL     1      32.294  25.617  41.290  1.00  0.00     0.000 C 
BRANCH   2   3
HETATM    3  C6  UNL     1      31.627  25.652  42.667  1.00  0.00     0.000 C 
BRANCH   3   4
HETATM    4  C5  UNL     1      31.397  27.072  43.193  1.00  0.00     0.000 C 
BRANCH   4   5
HETATM    5  C3  UNL     1      32.494  28.060  42.780  1.00  0.00     0.000 C 
BRANCH   5   6
HETATM    6  C1  UNL     1      33.326  28.573  43.958  1.00  0.00     0.000 C 
BRANCH   6   7
HETATM    7  C2  UNL     1      34.837  28.490  43.717  1.00  0.00     0.000 C 
BRANCH   7   8
HETATM    8  C4  UNL     1      35.653  27.799  44.814  1.00  0.00     0.000 C 
BRANCH   8   9
HETATM    9  C11 UNL     1      35.985  26.323  44.572  1.00  0.00     0.000 C 
BRANCH   9  10
HETATM   10  C12 UNL     1      35.373  25.765  43.284  1.00  0.00    -0.000 C 
BRANCH  10  11
HETATM   11  C13 UNL     1      36.364  25.706  42.119  1.00  0.00    -0.005 C 
HETATM   12  C14 UNL     1      35.862  26.393  40.858  1.00  0.00     0.005 C 
ENDBRANCH  10  11
ENDBRANCH   9  10
ENDBRANCH   8   9
ENDBRANCH   7   8
ENDBRANCH   6   7
ENDBRANCH   5   6
ENDBRANCH   4   5
ENDBRANCH   3   4
ENDBRANCH   2   3
ENDBRANCH   1   2
BRANCH   1  13
HETATM   13  C9  UNL     1      31.258  26.695  39.181  1.00  0.00     0.000 C 
BRANCH  13  14
HETATM   14  C10 UNL     1      29.852  27.294  39.036  1.00  0.00     0.009 C 
BRANCH  14  15
HETATM   15  C15 UNL     1      29.238  27.812  40.338  1.00  0.00     0.103 C 
BRANCH  15  16
HETATM   16  C16 UNL     1      28.691  29.226  40.236  1.00  0.00     0.217 C 
HETATM   17  N1  UNL     1      29.671  30.185  40.353  1.00  0.00    -0.359 N 
HETATM   18  H32 UNL     1      30.637  29.916  40.201  1.00  0.00     0.162 HD
HETATM   19  O2  UNL     1      27.502  29.492  40.104  1.00  0.00    -0.274 OA
BRANCH  17  20
HETATM   20  C17 UNL     1      29.381  31.591  40.132  1.00  0.00     0.153 C 
BRANCH  20  21
HETATM   21  C18 UNL     1      29.957  32.089  38.800  1.00  0.00     0.132 C 
HETATM   22  C19 UNL     1      28.907  32.140  37.696  1.00  0.00     0.041 C 
BRANCH  21  23
HETATM   23  O1  UNL     1      30.502  33.400  38.988  1.00  0.00    -0.394 OA
HETATM   24  H36 UNL     1      30.641  33.782  38.104  1.00  0.00     0.210 HD
ENDBRANCH  21  23
ENDBRANCH  20  21
ENDBRANCH  17  20
ENDBRANCH  15  16
ENDBRANCH  14  15
ENDBRANCH  13  14
ENDBRANCH   1  13
TORSDOF 17
