MODEL 1
REMARK VINA RESULT:      -6.2      0.000      0.000
REMARK  16 active torsions:
REMARK  status: ('A' for Active; 'I' for Inactive)
REMARK    1  A    between atoms: C1_1  and  O2_16 
REMARK    2  A    between atoms: C2_2  and  C7_7 
REMARK    3  A    between atoms: C3_3  and  C6_6 
REMARK    4  A    between atoms: C6_6  and  C15_18 
REMARK    5  A    between atoms: C7_7  and  C8_8 
REMARK    6  A    between atoms: C8_8  and  C9_9 
REMARK    7  A    between atoms: C9_9  and  C10_10 
REMARK    8  A    between atoms: C10_10  and  C11_11 
REMARK    9  A    between atoms: C11_11  and  C12_12 
REMARK   10  A    between atoms: C12_12  and  C13_13 
REMARK   11  A    between atoms: C15_18  and  C16_19 
REMARK   12  A    between atoms: C16_19  and  C17_20 
REMARK   13  A    between atoms: C17_20  and  C18_21 
REMARK   14  A    between atoms: C18_21  and  C19_22 
REMARK   15  A    between atoms: C19_22  and  C20_23 
REMARK   16  A    between atoms: C20_23  and  O5_25 
ROOT
HETATM    1  C1  UNL     1       2.673   4.737  -9.291  1.00  0.00     0.130 C 
HETATM    2  C2  UNL     1       1.669   4.742 -10.452  1.00  0.00     0.026 C 
HETATM    3  C3  UNL     1       1.897   6.112 -11.128  1.00  0.00     0.062 C 
HETATM    4  C4  UNL     1       2.283   6.964  -9.931  1.00  0.00     0.134 C 
HETATM    5  C5  UNL     1       2.599   6.143  -8.712  1.00  0.00     0.110 C 
HETATM    6  O3  UNL     1       2.356   8.187  -9.941  1.00  0.00    -0.297 OA
ENDROOT
BRANCH   3   7
HETATM    7  C6  UNL     1       0.641   6.615 -11.845  1.00  0.00     0.013 C 
BRANCH   7   8
HETATM    8  C15 UNL     1       0.897   7.443 -13.112  1.00  0.00     0.001 C 
BRANCH   8   9
HETATM    9  C16 UNL     1       1.665   6.683 -14.195  1.00  0.00     0.000 C 
BRANCH   9  10
HETATM   10  C17 UNL     1       0.977   5.394 -14.663  1.00  0.00     0.001 C 
BRANCH  10  11
HETATM   11  C18 UNL     1       1.933   4.278 -15.107  1.00  0.00     0.010 C 
BRANCH  11  12
HETATM   12  C19 UNL     1       1.475   3.563 -16.380  1.00  0.00     0.110 C 
BRANCH  12  13
HETATM   13  C20 UNL     1       0.283   2.670 -16.159  1.00  0.00     0.139 C 
HETATM   14  O4  UNL     1      -0.873   3.046 -16.021  1.00  0.00    -0.650 OA
BRANCH  13  15
HETATM   15  O5  UNL     1       0.589   1.366 -16.029  1.00  0.00    -0.776 OA
HETATM   16  H34 UNL     1       0.844   1.091 -16.935  1.00  0.00     0.167 HD
ENDBRANCH  13  15
ENDBRANCH  12  13
ENDBRANCH  11  12
ENDBRANCH  10  11
ENDBRANCH   9  10
ENDBRANCH   8   9
ENDBRANCH   7   8
ENDBRANCH   3   7
BRANCH   2  17
HETATM   17  C7  UNL     1       1.859   3.574 -11.438  1.00  0.00     0.015 C 
BRANCH  17  18
HETATM   18  C8  UNL     1       0.941   2.375 -11.195  1.00  0.00     0.079 C 
BRANCH  18  19
HETATM   19  C9  UNL     1      -0.199   2.297 -12.199  1.00  0.00     0.127 C 
HETATM   20  O1  UNL     1      -0.246   1.398 -13.041  1.00  0.00    -0.298 OA
BRANCH  19  21
HETATM   21  C10 UNL     1      -1.299   3.334 -12.046  1.00  0.00     0.078 C 
BRANCH  21  22
HETATM   22  C11 UNL     1      -1.799   3.505 -10.612  1.00  0.00     0.007 C 
BRANCH  22  23
HETATM   23  C12 UNL     1      -2.320   4.906 -10.259  1.00  0.00     0.000 C 
BRANCH  23  24
HETATM   24  C13 UNL     1      -2.132   5.344  -8.805  1.00  0.00    -0.005 C 
HETATM   25  C14 UNL     1      -1.255   6.577  -8.649  1.00  0.00     0.005 C 
ENDBRANCH  23  24
ENDBRANCH  22  23
ENDBRANCH  21  22
ENDBRANCH  19  21
ENDBRANCH  18  19
ENDBRANCH  17  18
ENDBRANCH   2  17
BRANCH   1  26
HETATM   26  O2  UNL     1       2.305   3.771  -8.320  1.00  0.00    -0.395 OA
HETATM   27  H27 UNL     1       2.628   4.081  -7.454  1.00  0.00     0.210 HD
ENDBRANCH   1  26
TORSDOF 16
ENDMDL
MODEL 2
REMARK VINA RESULT:      -6.1      2.036      4.940
REMARK  16 active torsions:
REMARK  status: ('A' for Active; 'I' for Inactive)
REMARK    1  A    between atoms: C1_1  and  O2_16 
REMARK    2  A    between atoms: C2_2  and  C7_7 
REMARK    3  A    between atoms: C3_3  and  C6_6 
REMARK    4  A    between atoms: C6_6  and  C15_18 
REMARK    5  A    between atoms: C7_7  and  C8_8 
REMARK    6  A    between atoms: C8_8  and  C9_9 
REMARK    7  A    between atoms: C9_9  and  C10_10 
REMARK    8  A    between atoms: C10_10  and  C11_11 
REMARK    9  A    between atoms: C11_11  and  C12_12 
REMARK   10  A    between atoms: C12_12  and  C13_13 
REMARK   11  A    between atoms: C15_18  and  C16_19 
REMARK   12  A    between atoms: C16_19  and  C17_20 
REMARK   13  A    between atoms: C17_20  and  C18_21 
REMARK   14  A    between atoms: C18_21  and  C19_22 
REMARK   15  A    between atoms: C19_22  and  C20_23 
REMARK   16  A    between atoms: C20_23  and  O5_25 
ROOT
HETATM    1  C1  UNL     1      -0.478   2.884 -15.302  1.00  0.00     0.130 C 
HETATM    2  C2  UNL     1      -0.194   2.756 -13.799  1.00  0.00     0.026 C 
HETATM    3  C3  UNL     1       0.738   3.951 -13.500  1.00  0.00     0.062 C 
HETATM    4  C4  UNL     1       1.493   4.066 -14.812  1.00  0.00     0.134 C 
HETATM    5  C5  UNL     1       0.861   3.264 -15.916  1.00  0.00     0.110 C 
HETATM    6  O3  UNL     1       2.497   4.746 -14.982  1.00  0.00    -0.297 OA
ENDROOT
BRANCH   3   7
HETATM    7  C6  UNL     1       1.652   3.681 -12.300  1.00  0.00     0.013 C 
BRANCH   7   8
HETATM    8  C15 UNL     1       1.670   4.780 -11.229  1.00  0.00     0.001 C 
BRANCH   8   9
HETATM    9  C16 UNL     1       0.758   5.965 -11.552  1.00  0.00     0.000 C 
BRANCH   9  10
HETATM   10  C17 UNL     1       1.506   7.225 -12.006  1.00  0.00     0.001 C 
BRANCH  10  11
HETATM   11  C18 UNL     1       0.973   7.861 -13.297  1.00  0.00     0.010 C 
BRANCH  11  12
HETATM   12  C19 UNL     1       2.027   7.955 -14.403  1.00  0.00     0.110 C 
BRANCH  12  13
HETATM   13  C20 UNL     1       2.939   9.143 -14.248  1.00  0.00     0.139 C 
HETATM   14  O4  UNL     1       2.625  10.311 -14.426  1.00  0.00    -0.650 OA
BRANCH  13  15
HETATM   15  O5  UNL     1       4.217   8.823 -13.970  1.00  0.00    -0.776 OA
HETATM   16  H34 UNL     1       4.286   8.949 -12.999  1.00  0.00     0.167 HD
ENDBRANCH  13  15
ENDBRANCH  12  13
ENDBRANCH  11  12
ENDBRANCH  10  11
ENDBRANCH   9  10
ENDBRANCH   8   9
ENDBRANCH   7   8
ENDBRANCH   3   7
BRANCH   2  17
HETATM   17  C7  UNL     1      -1.463   2.781 -12.925  1.00  0.00     0.015 C 
BRANCH  17  18
HETATM   18  C8  UNL     1      -1.450   1.802 -11.751  1.00  0.00     0.079 C 
BRANCH  18  19
HETATM   19  C9  UNL     1      -1.175   2.485 -10.421  1.00  0.00     0.127 C 
HETATM   20  O1  UNL     1      -0.396   1.994  -9.601  1.00  0.00    -0.298 OA
BRANCH  19  21
HETATM   21  C10 UNL     1      -1.849   3.831 -10.206  1.00  0.00     0.078 C 
BRANCH  21  22
HETATM   22  C11 UNL     1      -2.109   4.170  -8.739  1.00  0.00     0.007 C 
BRANCH  22  23
HETATM   23  C12 UNL     1      -2.497   5.630  -8.461  1.00  0.00     0.000 C 
BRANCH  23  24
HETATM   24  C13 UNL     1      -1.534   6.692  -8.997  1.00  0.00    -0.005 C 
HETATM   25  C14 UNL     1      -0.346   6.952  -8.085  1.00  0.00     0.005 C 
ENDBRANCH  23  24
ENDBRANCH  22  23
ENDBRANCH  21  22
ENDBRANCH  19  21
ENDBRANCH  18  19
ENDBRANCH  17  18
ENDBRANCH   2  17
BRANCH   1  26
HETATM   26  O2  UNL     1      -0.944   1.652 -15.827  1.00  0.00    -0.395 OA
HETATM   27  H27 UNL     1      -1.310   1.824 -16.713  1.00  0.00     0.210 HD
ENDBRANCH   1  26
TORSDOF 16
ENDMDL
