MODEL 1
REMARK VINA RESULT:      -8.7      0.000      0.000
REMARK  7 active torsions:
REMARK  status: ('A' for Active; 'I' for Inactive)
REMARK    1  A    between atoms: C7_7  and  C14_15 
REMARK    2  A    between atoms: N1_9  and  C9_10 
REMARK    3  A    between atoms: C9_10  and  C10_11 
REMARK    4  A    between atoms: C10_11  and  C11_12 
REMARK    5  A    between atoms: C11_12  and  C12_13 
REMARK    6  A    between atoms: C14_15  and  C15_16 
REMARK    7  A    between atoms: C21_23  and  C25_27 
ROOT
HETATM    1  C1  UNL     1      -0.047   2.285 -14.844  1.00  0.00     0.015 A 
HETATM    2  C2  UNL     1       0.237   3.343 -13.950  1.00  0.00     0.006 A 
HETATM    3  C3  UNL     1       1.171   4.307 -14.358  1.00  0.00     0.045 A 
HETATM    4  C4  UNL     1       1.808   4.252 -15.610  1.00  0.00     0.030 A 
HETATM    5  C5  UNL     1       1.499   3.195 -16.468  1.00  0.00     0.002 A 
HETATM    6  C6  UNL     1       0.585   2.223 -16.090  1.00  0.00     0.001 A 
HETATM    7  C7  UNL     1      -0.213   3.710 -12.631  1.00  0.00     0.043 A 
HETATM    8  C8  UNL     1       0.472   4.866 -12.296  1.00  0.00     0.107 A 
HETATM    9  N1  UNL     1       1.289   5.218 -13.332  1.00  0.00    -0.355 N 
ENDROOT
BRANCH   7  10
HETATM   10  C14 UNL     1      -1.175   3.087 -11.719  1.00  0.00     0.195 C 
HETATM   11  O1  UNL     1      -1.852   2.111 -12.034  1.00  0.00    -0.287 OA
BRANCH  10  12
HETATM   12  C15 UNL     1      -1.285   3.580 -10.337  1.00  0.00     0.026 A 
HETATM   13  C16 UNL     1      -0.505   3.072  -9.241  1.00  0.00    -0.005 A 
HETATM   14  C17 UNL     1      -0.785   3.681  -7.981  1.00  0.00    -0.025 A 
HETATM   15  C21 UNL     1       0.506   2.032  -9.257  1.00  0.00    -0.046 A 
HETATM   16  C18 UNL     1      -1.737   4.709  -7.855  1.00  0.00     0.012 A 
HETATM   17  C24 UNL     1      -0.119   3.277  -6.818  1.00  0.00     0.012 A 
HETATM   18  C19 UNL     1      -2.449   5.182  -8.949  1.00  0.00     0.002 A 
HETATM   19  C20 UNL     1      -2.224   4.620 -10.191  1.00  0.00     0.016 A 
HETATM   20  C23 UNL     1       0.835   2.273  -6.850  1.00  0.00     0.001 A 
HETATM   21  C22 UNL     1       1.144   1.660  -8.055  1.00  0.00     0.008 A 
BRANCH  15  22
HETATM   22  C25 UNL     1       0.910   1.331 -10.547  1.00  0.00     0.035 C 
HETATM   23  C26 UNL     1       0.560  -0.148 -10.712  1.00  0.00     0.010 C 
ENDBRANCH  15  22
ENDBRANCH  10  12
ENDBRANCH   7  10
BRANCH   9  24
HETATM   24  C9  UNL     1       2.165   6.381 -13.319  1.00  0.00     0.128 C 
BRANCH  24  25
HETATM   25  C10 UNL     1       1.481   7.619 -13.899  1.00  0.00     0.020 C 
BRANCH  25  26
HETATM   26  C11 UNL     1       2.470   8.709 -14.325  1.00  0.00     0.001 C 
BRANCH  26  27
HETATM   27  C12 UNL     1       2.383  10.007 -13.519  1.00  0.00    -0.004 C 
HETATM   28  C13 UNL     1       2.010  11.233 -14.333  1.00  0.00     0.005 C 
ENDBRANCH  26  27
ENDBRANCH  25  26
ENDBRANCH  24  25
ENDBRANCH   9  24
TORSDOF 7
ENDMDL
MODEL 2
REMARK VINA RESULT:      -8.7      0.690      2.553
REMARK  7 active torsions:
REMARK  status: ('A' for Active; 'I' for Inactive)
REMARK    1  A    between atoms: C7_7  and  C14_15 
REMARK    2  A    between atoms: N1_9  and  C9_10 
REMARK    3  A    between atoms: C9_10  and  C10_11 
REMARK    4  A    between atoms: C10_11  and  C11_12 
REMARK    5  A    between atoms: C11_12  and  C12_13 
REMARK    6  A    between atoms: C14_15  and  C15_16 
REMARK    7  A    between atoms: C21_23  and  C25_27 
ROOT
HETATM    1  C1  UNL     1      -0.049   2.417 -15.081  1.00  0.00     0.015 A 
HETATM    2  C2  UNL     1       0.255   3.335 -14.049  1.00  0.00     0.006 A 
HETATM    3  C3  UNL     1       1.068   4.431 -14.373  1.00  0.00     0.045 A 
HETATM    4  C4  UNL     1       1.568   4.638 -15.670  1.00  0.00     0.030 A 
HETATM    5  C5  UNL     1       1.244   3.712 -16.664  1.00  0.00     0.002 A 
HETATM    6  C6  UNL     1       0.448   2.615 -16.374  1.00  0.00     0.001 A 
HETATM    7  C7  UNL     1      -0.074   3.440 -12.650  1.00  0.00     0.043 A 
HETATM    8  C8  UNL     1       0.559   4.581 -12.189  1.00  0.00     0.107 A 
HETATM    9  N1  UNL     1       1.232   5.169 -13.221  1.00  0.00    -0.355 N 
ENDROOT
BRANCH   7  10
HETATM   10  C14 UNL     1      -0.885   2.594 -11.772  1.00  0.00     0.195 C 
HETATM   11  O1  UNL     1      -2.002   2.189 -12.086  1.00  0.00    -0.287 OA
BRANCH  10  12
HETATM   12  C15 UNL     1      -0.321   2.127 -10.496  1.00  0.00     0.026 A 
HETATM   13  C16 UNL     1      -0.626   2.719  -9.221  1.00  0.00    -0.005 A 
HETATM   14  C17 UNL     1       0.045   2.120  -8.113  1.00  0.00    -0.025 A 
HETATM   15  C21 UNL     1      -1.507   3.834  -8.930  1.00  0.00    -0.046 A 
HETATM   16  C18 UNL     1       0.911   1.025  -8.281  1.00  0.00     0.012 A 
HETATM   17  C24 UNL     1      -0.135   2.602  -6.811  1.00  0.00     0.012 A 
HETATM   18  C19 UNL     1       1.156   0.473  -9.531  1.00  0.00     0.002 A 
HETATM   19  C20 UNL     1       0.539   1.021 -10.639  1.00  0.00     0.016 A 
HETATM   20  C23 UNL     1      -0.972   3.676  -6.554  1.00  0.00     0.001 A 
HETATM   21  C22 UNL     1      -1.650   4.283  -7.600  1.00  0.00     0.008 A 
BRANCH  15  22
HETATM   22  C25 UNL     1      -2.298   4.534 -10.027  1.00  0.00     0.035 C 
HETATM   23  C26 UNL     1      -2.443   6.054  -9.962  1.00  0.00     0.010 C 
ENDBRANCH  15  22
ENDBRANCH  10  12
ENDBRANCH   7  10
BRANCH   9  24
HETATM   24  C9  UNL     1       2.020   6.386 -13.092  1.00  0.00     0.128 C 
BRANCH  24  25
HETATM   25  C10 UNL     1       1.286   7.604 -13.655  1.00  0.00     0.020 C 
BRANCH  25  26
HETATM   26  C11 UNL     1       2.214   8.578 -14.390  1.00  0.00     0.001 C 
BRANCH  26  27
HETATM   27  C12 UNL     1       2.660   9.788 -13.564  1.00  0.00    -0.004 C 
HETATM   28  C13 UNL     1       1.957  11.087 -13.916  1.00  0.00     0.005 C 
ENDBRANCH  26  27
ENDBRANCH  25  26
ENDBRANCH  24  25
ENDBRANCH   9  24
TORSDOF 7
ENDMDL
