MODEL 1
REMARK VINA RESULT:      -6.4      0.000      0.000
REMARK  14 active torsions:
REMARK  status: ('A' for Active; 'I' for Inactive)
REMARK    1  A    between atoms: C2_2  and  C12_13 
REMARK    2  A    between atoms: C3_3  and  C6_7 
REMARK    3  A    between atoms: C6_7  and  C7_8 
REMARK    4  A    between atoms: C7_8  and  C8_9 
REMARK    5  A    between atoms: C8_9  and  C9_10 
REMARK    6  A    between atoms: C9_10  and  C10_11 
REMARK    7  A    between atoms: C10_11  and  C11_12 
REMARK    8  A    between atoms: C11_12  and  C20_22 
REMARK    9  A    between atoms: C13_14  and  C14_15 
REMARK   10  A    between atoms: C14_15  and  C15_16 
REMARK   11  A    between atoms: C15_16  and  C16_17 
REMARK   12  A    between atoms: C16_17  and  C17_18 
REMARK   13  A    between atoms: C17_18  and  C18_19 
REMARK   14  A    between atoms: C20_22  and  O4_24 
ROOT
HETATM    1  C1  UNL     1       1.086   4.484 -16.545  1.00  0.00    -0.014 A 
HETATM    2  C2  UNL     1       0.700   4.637 -15.103  1.00  0.00     0.042 A 
HETATM    3  C3  UNL     1       0.525   3.187 -14.587  1.00  0.00     0.071 A 
HETATM    4  C4  UNL     1       0.681   2.387 -15.862  1.00  0.00     0.154 A 
HETATM    5  C5  UNL     1       1.073   3.230 -16.999  1.00  0.00     0.047 A 
HETATM    6  O1  UNL     1       0.534   1.181 -15.977  1.00  0.00    -0.293 OA
ENDROOT
BRANCH   3   7
HETATM    7  C6  UNL     1      -0.835   2.981 -13.910  1.00  0.00     0.013 C 
BRANCH   7   8
HETATM    8  C7  UNL     1      -0.785   1.928 -12.797  1.00  0.00     0.001 C 
BRANCH   8   9
HETATM    9  C8  UNL     1      -1.547   2.345 -11.534  1.00  0.00     0.000 C 
BRANCH   9  10
HETATM   10  C9  UNL     1      -1.506   3.851 -11.272  1.00  0.00     0.001 C 
BRANCH  10  11
HETATM   11  C10 UNL     1      -1.785   4.244  -9.815  1.00  0.00     0.010 C 
BRANCH  11  12
HETATM   12  C11 UNL     1      -2.259   5.687  -9.627  1.00  0.00     0.110 C 
BRANCH  12  13
HETATM   13  C20 UNL     1      -1.443   6.455  -8.620  1.00  0.00     0.139 C 
HETATM   14  O3  UNL     1      -1.402   7.663  -8.463  1.00  0.00    -0.650 OA
BRANCH  13  15
HETATM   15  O4  UNL     1      -0.672   5.642  -7.873  1.00  0.00    -0.776 OA
HETATM   16  H30 UNL     1       0.052   5.379  -8.481  1.00  0.00     0.167 HD
ENDBRANCH  13  15
ENDBRANCH  12  13
ENDBRANCH  11  12
ENDBRANCH  10  11
ENDBRANCH   9  10
ENDBRANCH   8   9
ENDBRANCH   7   8
ENDBRANCH   3   7
BRANCH   2  17
HETATM   17  C12 UNL     1       1.682   5.404 -14.251  1.00  0.00    -0.014 C 
HETATM   18  C13 UNL     1       1.440   6.483 -13.489  1.00  0.00     0.046 C 
BRANCH  18  19
HETATM   19  C14 UNL     1       2.547   7.125 -12.717  1.00  0.00     0.149 C 
HETATM   20  O2  UNL     1       3.540   7.581 -13.278  1.00  0.00    -0.293 OA
BRANCH  19  21
HETATM   21  C15 UNL     1       2.373   7.215 -11.215  1.00  0.00     0.083 C 
BRANCH  21  22
HETATM   22  C16 UNL     1       1.655   5.974 -10.691  1.00  0.00     0.008 C 
BRANCH  22  23
HETATM   23  C17 UNL     1       2.602   4.816 -10.371  1.00  0.00     0.000 C 
BRANCH  23  24
HETATM   24  C18 UNL     1       2.223   3.514 -11.078  1.00  0.00    -0.005 C 
HETATM   25  C19 UNL     1       1.883   2.419 -10.078  1.00  0.00     0.005 C 
ENDBRANCH  23  24
ENDBRANCH  22  23
ENDBRANCH  21  22
ENDBRANCH  19  21
ENDBRANCH  18  19
ENDBRANCH   2  17
TORSDOF 14
ENDMDL
MODEL 2
REMARK VINA RESULT:      -6.4      2.380      6.127
REMARK  14 active torsions:
REMARK  status: ('A' for Active; 'I' for Inactive)
REMARK    1  A    between atoms: C2_2  and  C12_13 
REMARK    2  A    between atoms: C3_3  and  C6_7 
REMARK    3  A    between atoms: C6_7  and  C7_8 
REMARK    4  A    between atoms: C7_8  and  C8_9 
REMARK    5  A    between atoms: C8_9  and  C9_10 
REMARK    6  A    between atoms: C9_10  and  C10_11 
REMARK    7  A    between atoms: C10_11  and  C11_12 
REMARK    8  A    between atoms: C11_12  and  C20_22 
REMARK    9  A    between atoms: C13_14  and  C14_15 
REMARK   10  A    between atoms: C14_15  and  C15_16 
REMARK   11  A    between atoms: C15_16  and  C16_17 
REMARK   12  A    between atoms: C16_17  and  C17_18 
REMARK   13  A    between atoms: C17_18  and  C18_19 
REMARK   14  A    between atoms: C20_22  and  O4_24 
ROOT
HETATM    1  C1  UNL     1       2.355   4.581 -11.200  1.00  0.00    -0.014 A 
HETATM    2  C2  UNL     1       1.152   3.699 -11.025  1.00  0.00     0.042 A 
HETATM    3  C3  UNL     1       0.014   4.664 -10.609  1.00  0.00     0.071 A 
HETATM    4  C4  UNL     1       0.763   5.968 -10.445  1.00  0.00     0.154 A 
HETATM    5  C5  UNL     1       2.164   5.859 -10.870  1.00  0.00     0.047 A 
HETATM    6  O1  UNL     1       0.297   7.019 -10.035  1.00  0.00    -0.293 OA
ENDROOT
BRANCH   3   7
HETATM    7  C6  UNL     1      -0.685   4.205  -9.324  1.00  0.00     0.013 C 
BRANCH   7   8
HETATM    8  C7  UNL     1      -1.987   3.445  -9.602  1.00  0.00     0.001 C 
BRANCH   8   9
HETATM    9  C8  UNL     1      -1.989   2.021  -9.034  1.00  0.00     0.000 C 
BRANCH   9  10
HETATM   10  C9  UNL     1      -1.407   0.984  -9.997  1.00  0.00     0.001 C 
BRANCH  10  11
HETATM   11  C10 UNL     1      -0.108   0.331  -9.507  1.00  0.00     0.010 C 
BRANCH  11  12
HETATM   12  C11 UNL     1       0.775  -0.237 -10.620  1.00  0.00     0.110 C 
BRANCH  12  13
HETATM   13  C20 UNL     1       0.266  -1.543 -11.175  1.00  0.00     0.139 C 
HETATM   14  O3  UNL     1      -0.041  -2.545 -10.554  1.00  0.00    -0.650 OA
BRANCH  13  15
HETATM   15  O4  UNL     1       0.211  -1.529 -12.520  1.00  0.00    -0.776 OA
HETATM   16  H30 UNL     1      -0.667  -1.137 -12.717  1.00  0.00     0.167 HD
ENDBRANCH  13  15
ENDBRANCH  12  13
ENDBRANCH  11  12
ENDBRANCH  10  11
ENDBRANCH   9  10
ENDBRANCH   8   9
ENDBRANCH   7   8
ENDBRANCH   3   7
BRANCH   2  17
HETATM   17  C12 UNL     1       0.765   2.890 -12.238  1.00  0.00    -0.014 C 
HETATM   18  C13 UNL     1      -0.381   2.954 -12.936  1.00  0.00     0.046 C 
BRANCH  18  19
HETATM   19  C14 UNL     1      -0.599   2.060 -14.113  1.00  0.00     0.149 C 
HETATM   20  O2  UNL     1      -0.733   0.846 -13.979  1.00  0.00    -0.293 OA
BRANCH  19  21
HETATM   21  C15 UNL     1      -0.679   2.722 -15.474  1.00  0.00     0.083 C 
BRANCH  21  22
HETATM   22  C16 UNL     1       0.714   2.833 -16.088  1.00  0.00     0.008 C 
BRANCH  22  23
HETATM   23  C17 UNL     1       1.202   4.276 -16.226  1.00  0.00     0.000 C 
BRANCH  23  24
HETATM   24  C18 UNL     1       1.982   4.769 -15.007  1.00  0.00    -0.005 C 
HETATM   25  C19 UNL     1       1.456   6.110 -14.518  1.00  0.00     0.005 C 
ENDBRANCH  23  24
ENDBRANCH  22  23
ENDBRANCH  21  22
ENDBRANCH  19  21
ENDBRANCH  18  19
ENDBRANCH   2  17
TORSDOF 14
ENDMDL
