MODEL 1
REMARK VINA RESULT:      -6.9      0.000      0.000
REMARK  15 active torsions:
REMARK  status: ('A' for Active; 'I' for Inactive)
REMARK    1  A    between atoms: C2_2  and  O2_14 
REMARK    2  A    between atoms: C3_3  and  C13_15 
REMARK    3  A    between atoms: C4_4  and  C6_6 
REMARK    4  A    between atoms: C5_5  and  O1_13 
REMARK    5  A    between atoms: C6_6  and  C7_7 
REMARK    6  A    between atoms: C8_8  and  C9_9 
REMARK    7  A    between atoms: C9_9  and  C10_10 
REMARK    8  A    between atoms: C10_10  and  C11_11 
REMARK    9  A    between atoms: C11_11  and  C12_12 
REMARK   10  A    between atoms: C12_12  and  O6_28 
REMARK   11  A    between atoms: C14_16  and  C15_17 
REMARK   12  A    between atoms: C15_17  and  C16_18 
REMARK   13  A    between atoms: C15_17  and  O3_19 
REMARK   14  A    between atoms: C16_18  and  O4_20 
REMARK   15  A    between atoms: O4_20  and  C17_21 
ROOT
HETATM    1  C1  UNL     1      -0.285  -1.044 -11.997  1.00  0.00     0.064 C 
HETATM    2  C2  UNL     1      -0.384  -0.453 -13.393  1.00  0.00     0.128 C 
HETATM    3  C3  UNL     1      -0.949   0.966 -13.159  1.00  0.00     0.043 C 
HETATM    4  C4  UNL     1      -0.455   1.367 -11.735  1.00  0.00     0.028 C 
HETATM    5  C5  UNL     1       0.277   0.118 -11.200  1.00  0.00     0.125 C 
ENDROOT
BRANCH   3   6
HETATM    6  C13 UNL     1      -0.647   1.878 -14.334  1.00  0.00    -0.021 C 
HETATM    7  C14 UNL     1       0.383   1.813 -15.197  1.00  0.00     0.003 C 
BRANCH   7   8
HETATM    8  C15 UNL     1       0.672   2.749 -16.347  1.00  0.00     0.165 C 
BRANCH   8   9
HETATM    9  C16 UNL     1       1.827   3.752 -16.160  1.00  0.00     0.211 C 
BRANCH   9  10
HETATM   10  O4  UNL     1       2.223   3.786 -14.782  1.00  0.00    -0.348 OA
BRANCH  10  11
HETATM   11  C17 UNL     1       1.677   4.787 -14.028  1.00  0.00     0.068 A 
HETATM   12  C18 UNL     1       1.368   6.057 -14.516  1.00  0.00     0.037 A 
HETATM   13  C19 UNL     1       0.844   7.026 -13.654  1.00  0.00     0.003 A 
HETATM   14  C20 UNL     1       0.645   6.730 -12.304  1.00  0.00     0.000 A 
HETATM   15  C21 UNL     1       0.979   5.469 -11.810  1.00  0.00     0.003 A 
HETATM   16  C22 UNL     1       1.505   4.503 -12.670  1.00  0.00     0.037 A 
ENDBRANCH  10  11
ENDBRANCH   9  10
ENDBRANCH   8   9
BRANCH   8  17
HETATM   17  O3  UNL     1      -0.546   3.447 -16.624  1.00  0.00    -0.390 OA
HETATM   18  H24 UNL     1      -1.278   2.819 -16.522  1.00  0.00     0.210 HD
ENDBRANCH   8  17
ENDBRANCH   7   8
ENDBRANCH   3   6
BRANCH   2  19
HETATM   19  O2  UNL     1      -1.249  -1.245 -14.194  1.00  0.00    -0.395 OA
HETATM   20  H18 UNL     1      -1.905  -0.650 -14.594  1.00  0.00     0.210 HD
ENDBRANCH   2  19
BRANCH   4  21
HETATM   21  C6  UNL     1      -1.576   1.947 -10.843  1.00  0.00     0.034 C 
BRANCH  21  22
HETATM   22  C7  UNL     1      -1.976   3.377 -11.112  1.00  0.00    -0.030 C 
HETATM   23  C8  UNL     1      -2.085   4.386 -10.228  1.00  0.00    -0.031 C 
BRANCH  23  24
HETATM   24  C9  UNL     1      -1.855   4.344  -8.743  1.00  0.00     0.027 C 
BRANCH  24  25
HETATM   25  C10 UNL     1      -0.400   4.642  -8.351  1.00  0.00     0.013 C 
BRANCH  25  26
HETATM   26  C11 UNL     1       0.440   3.401  -8.034  1.00  0.00     0.111 C 
BRANCH  26  27
HETATM   27  C12 UNL     1       1.741   3.365  -8.800  1.00  0.00     0.258 C 
HETATM   28  O5  UNL     1       2.033   2.534  -9.649  1.00  0.00    -0.265 OA
BRANCH  27  29
HETATM   29  O6  UNL     1       2.557   4.373  -8.380  1.00  0.00    -0.326 OA
HETATM   30  C23 UNL     1       3.141   4.145  -7.098  1.00  0.00     0.213 C 
ENDBRANCH  27  29
ENDBRANCH  26  27
ENDBRANCH  25  26
ENDBRANCH  24  25
ENDBRANCH  23  24
ENDBRANCH  21  22
ENDBRANCH   4  21
BRANCH   5  31
HETATM   31  O1  UNL     1       0.194  -0.074  -9.808  1.00  0.00    -0.395 OA
HETATM   32  H17 UNL     1       1.095  -0.170  -9.455  1.00  0.00     0.210 HD
ENDBRANCH   5  31
TORSDOF 15
ENDMDL
MODEL 2
REMARK VINA RESULT:      -6.8      2.111      5.317
REMARK  15 active torsions:
REMARK  status: ('A' for Active; 'I' for Inactive)
REMARK    1  A    between atoms: C2_2  and  O2_14 
REMARK    2  A    between atoms: C3_3  and  C13_15 
REMARK    3  A    between atoms: C4_4  and  C6_6 
REMARK    4  A    between atoms: C5_5  and  O1_13 
REMARK    5  A    between atoms: C6_6  and  C7_7 
REMARK    6  A    between atoms: C8_8  and  C9_9 
REMARK    7  A    between atoms: C9_9  and  C10_10 
REMARK    8  A    between atoms: C10_10  and  C11_11 
REMARK    9  A    between atoms: C11_11  and  C12_12 
REMARK   10  A    between atoms: C12_12  and  O6_28 
REMARK   11  A    between atoms: C14_16  and  C15_17 
REMARK   12  A    between atoms: C15_17  and  C16_18 
REMARK   13  A    between atoms: C15_17  and  O3_19 
REMARK   14  A    between atoms: C16_18  and  O4_20 
REMARK   15  A    between atoms: O4_20  and  C17_21 
ROOT
HETATM    1  C1  UNL     1       0.576   4.107 -15.761  1.00  0.00     0.064 C 
HETATM    2  C2  UNL     1      -0.417   3.052 -15.305  1.00  0.00     0.128 C 
HETATM    3  C3  UNL     1       0.006   2.744 -13.852  1.00  0.00     0.043 C 
HETATM    4  C4  UNL     1       0.656   4.063 -13.332  1.00  0.00     0.028 C 
HETATM    5  C5  UNL     1       0.656   5.013 -14.548  1.00  0.00     0.125 C 
ENDROOT
BRANCH   3   6
HETATM    6  C13 UNL     1      -1.134   2.119 -13.068  1.00  0.00    -0.021 C 
HETATM    7  C14 UNL     1      -1.084   1.099 -12.192  1.00  0.00     0.003 C 
BRANCH   7   8
HETATM    8  C15 UNL     1      -2.240   0.482 -11.440  1.00  0.00     0.165 C 
BRANCH   8   9
HETATM    9  C16 UNL     1      -2.363   0.824  -9.943  1.00  0.00     0.211 C 
BRANCH   9  10
HETATM   10  O4  UNL     1      -1.325   1.739  -9.566  1.00  0.00    -0.348 OA
BRANCH  10  11
HETATM   11  C17 UNL     1      -1.729   3.011  -9.271  1.00  0.00     0.068 A 
HETATM   12  C18 UNL     1      -1.878   4.026 -10.217  1.00  0.00     0.037 A 
HETATM   13  C19 UNL     1      -2.264   5.307  -9.809  1.00  0.00     0.003 A 
HETATM   14  C20 UNL     1      -2.482   5.576  -8.456  1.00  0.00     0.000 A 
HETATM   15  C21 UNL     1      -2.306   4.570  -7.507  1.00  0.00     0.003 A 
HETATM   16  C22 UNL     1      -1.919   3.291  -7.915  1.00  0.00     0.037 A 
ENDBRANCH  10  11
ENDBRANCH   9  10
ENDBRANCH   8   9
BRANCH   8  17
HETATM   17  O3  UNL     1      -2.133  -0.934 -11.614  1.00  0.00    -0.390 OA
HETATM   18  H24 UNL     1      -1.390  -1.245 -11.073  1.00  0.00     0.210 HD
ENDBRANCH   8  17
ENDBRANCH   7   8
ENDBRANCH   3   6
BRANCH   2  19
HETATM   19  O2  UNL     1      -0.327   1.908 -16.140  1.00  0.00    -0.395 OA
HETATM   20  H18 UNL     1      -1.232   1.594 -16.307  1.00  0.00     0.210 HD
ENDBRANCH   2  19
BRANCH   4  21
HETATM   21  C6  UNL     1       2.015   3.836 -12.630  1.00  0.00     0.034 C 
BRANCH  21  22
HETATM   22  C7  UNL     1       1.969   3.166 -11.279  1.00  0.00    -0.030 C 
HETATM   23  C8  UNL     1       2.252   3.704 -10.078  1.00  0.00    -0.031 C 
BRANCH  23  24
HETATM   24  C9  UNL     1       2.704   5.105  -9.776  1.00  0.00     0.027 C 
BRANCH  24  25
HETATM   25  C10 UNL     1       1.541   6.104  -9.671  1.00  0.00     0.013 C 
BRANCH  25  26
HETATM   26  C11 UNL     1       1.256   6.886 -10.956  1.00  0.00     0.111 C 
BRANCH  26  27
HETATM   27  C12 UNL     1       2.470   7.618 -11.477  1.00  0.00     0.258 C 
HETATM   28  O5  UNL     1       3.169   7.245 -12.408  1.00  0.00    -0.265 OA
BRANCH  27  29
HETATM   29  O6  UNL     1       2.693   8.738 -10.732  1.00  0.00    -0.326 OA
HETATM   30  C23 UNL     1       3.202   9.838 -11.485  1.00  0.00     0.213 C 
ENDBRANCH  27  29
ENDBRANCH  26  27
ENDBRANCH  25  26
ENDBRANCH  24  25
ENDBRANCH  23  24
ENDBRANCH  21  22
ENDBRANCH   4  21
BRANCH   5  31
HETATM   31  O1  UNL     1       1.735   5.917 -14.601  1.00  0.00    -0.395 OA
HETATM   32  H17 UNL     1       1.578   6.542 -15.329  1.00  0.00     0.210 HD
ENDBRANCH   5  31
TORSDOF 15
ENDMDL
