MODEL 1
REMARK VINA RESULT:      -6.6      0.000      0.000
REMARK  10 active torsions:
REMARK  status: ('A' for Active; 'I' for Inactive)
REMARK    1  A    between atoms: C2_2  and  O1_7 
REMARK    2  A    between atoms: C3_3  and  O3_9 
REMARK    3  A    between atoms: C4_4  and  O2_8 
REMARK    4  A    between atoms: C5_5  and  C6_6 
REMARK    5  A    between atoms: O4_10  and  P1_16 
REMARK    6  A    between atoms: O5_11  and  P2_20 
REMARK    7  A    between atoms: O6_12  and  P3_24 
REMARK    8  A    between atoms: P1_16  and  O9_19 
REMARK    9  A    between atoms: P2_20  and  O12_23 
REMARK   10  A    between atoms: P3_24  and  O15_27 
ROOT
HETATM    1  C1  UNL     1       0.398   4.337 -11.931  1.00  0.00     0.198 A 
HETATM    2  C2  UNL     1      -0.760   4.516 -10.923  1.00  0.00     0.181 A 
HETATM    3  C3  UNL     1      -0.940   3.226 -10.117  1.00  0.00     0.180 A 
HETATM    4  C4  UNL     1      -1.213   2.017 -11.035  1.00  0.00     0.181 A 
HETATM    5  C5  UNL     1      -0.187   1.844 -12.190  1.00  0.00     0.198 A 
HETATM    6  C6  UNL     1      -0.011   3.213 -12.914  1.00  0.00     0.199 A 
HETATM    7  O4  UNL     1      -0.677   0.907 -13.168  1.00  0.00    -0.279 OA
HETATM    8  O5  UNL     1       0.941   3.147 -13.979  1.00  0.00    -0.279 OA
HETATM    9  O6  UNL     1       1.611   3.948 -11.278  1.00  0.00    -0.279 OA
HETATM   10 NA1  UNL     1      -0.049   2.697 -12.001  1.00  0.00     0.000 Na
HETATM   11 NA2  UNL     1      -0.049   2.697 -12.001  1.00  0.00     0.000 Na
HETATM   12 NA3  UNL     1      -0.049   2.697 -12.001  1.00  0.00     0.000 Na
ENDROOT
BRANCH   7  13
HETATM   13  P1  UNL     1      -0.875  -0.645 -12.784  1.00  0.00     0.406 P 
HETATM   14  O7  UNL     1      -2.303  -0.848 -12.340  1.00  0.00    -0.624 OA
HETATM   15  O8  UNL     1       0.288  -1.204 -12.027  1.00  0.00    -0.624 OA
BRANCH  13  16
HETATM   16  O9  UNL     1      -0.850  -1.226 -14.283  1.00  0.00    -0.300 OA
HETATM   17  H10 UNL     1      -1.692  -0.937 -14.666  1.00  0.00     0.223 HD
ENDBRANCH  13  16
ENDBRANCH   7  13
BRANCH   4  18
HETATM   18  O2  UNL     1      -1.300   0.885 -10.144  1.00  0.00    -0.390 OA
HETATM   19  H8  UNL     1      -2.002   0.294 -10.529  1.00  0.00     0.210 HD
ENDBRANCH   4  18
BRANCH   2  20
HETATM   20  O1  UNL     1      -0.592   5.657 -10.071  1.00  0.00    -0.390 OA
HETATM   21  H7  UNL     1      -1.485   5.874  -9.688  1.00  0.00     0.210 HD
ENDBRANCH   2  20
BRANCH   3  22
HETATM   22  O3  UNL     1      -2.067   3.323  -9.212  1.00  0.00    -0.390 OA
HETATM   23  H9  UNL     1      -2.282   2.381  -9.053  1.00  0.00     0.210 HD
ENDBRANCH   3  22
BRANCH   8  24
HETATM   24  P2  UNL     1       0.415   2.921 -15.498  1.00  0.00     0.406 P 
HETATM   25  O10 UNL     1      -1.054   3.238 -15.622  1.00  0.00    -0.624 OA
HETATM   26  O11 UNL     1       1.417   3.488 -16.470  1.00  0.00    -0.624 OA
BRANCH  24  27
HETATM   27  O12 UNL     1       0.542   1.316 -15.551  1.00  0.00    -0.300 OA
HETATM   28  H11 UNL     1       0.447   0.993 -14.633  1.00  0.00     0.223 HD
ENDBRANCH  24  27
ENDBRANCH   8  24
BRANCH   9  29
HETATM   29  P3  UNL     1       2.464   5.050 -10.472  1.00  0.00     0.406 P 
HETATM   30  O13 UNL     1       1.892   5.200  -9.088  1.00  0.00    -0.624 OA
HETATM   31  O14 UNL     1       2.803   6.223 -11.343  1.00  0.00    -0.624 OA
BRANCH  29  32
HETATM   32  O15 UNL     1       3.839   4.216 -10.367  1.00  0.00    -0.300 OA
HETATM   33  H12 UNL     1       3.594   3.475  -9.787  1.00  0.00     0.223 HD
ENDBRANCH  29  32
ENDBRANCH   9  29
TORSDOF 10
ENDMDL
MODEL 2
REMARK VINA RESULT:      -6.4      2.279      5.149
REMARK  10 active torsions:
REMARK  status: ('A' for Active; 'I' for Inactive)
REMARK    1  A    between atoms: C2_2  and  O1_7 
REMARK    2  A    between atoms: C3_3  and  O3_9 
REMARK    3  A    between atoms: C4_4  and  O2_8 
REMARK    4  A    between atoms: C5_5  and  C6_6 
REMARK    5  A    between atoms: O4_10  and  P1_16 
REMARK    6  A    between atoms: O5_11  and  P2_20 
REMARK    7  A    between atoms: O6_12  and  P3_24 
REMARK    8  A    between atoms: P1_16  and  O9_19 
REMARK    9  A    between atoms: P2_20  and  O12_23 
REMARK   10  A    between atoms: P3_24  and  O15_27 
ROOT
HETATM    1  C1  UNL     1       0.879   2.619 -11.296  1.00  0.00     0.198 A 
HETATM    2  C2  UNL     1       2.171   2.523 -10.454  1.00  0.00     0.181 A 
HETATM    3  C3  UNL     1       2.519   3.905  -9.893  1.00  0.00     0.180 A 
HETATM    4  C4  UNL     1       2.692   4.945 -11.019  1.00  0.00     0.181 A 
HETATM    5  C5  UNL     1       1.509   5.006 -12.024  1.00  0.00     0.198 A 
HETATM    6  C6  UNL     1       1.173   3.558 -12.492  1.00  0.00     0.199 A 
HETATM    7  O4  UNL     1       1.877   5.757 -13.197  1.00  0.00    -0.279 OA
HETATM    8  O5  UNL     1       0.072   3.522 -13.404  1.00  0.00    -0.279 OA
HETATM    9  O6  UNL     1      -0.204   3.173 -10.542  1.00  0.00    -0.279 OA
HETATM   10 NA1  UNL     1       1.370   4.201 -11.686  1.00  0.00     0.000 Na
HETATM   11 NA2  UNL     1       1.370   4.201 -11.686  1.00  0.00     0.000 Na
HETATM   12 NA3  UNL     1       1.370   4.201 -11.686  1.00  0.00     0.000 Na
ENDROOT
BRANCH   7  13
HETATM   13  P1  UNL     1       2.188   7.333 -13.093  1.00  0.00     0.406 P 
HETATM   14  O7  UNL     1       3.675   7.538 -13.252  1.00  0.00    -0.624 OA
HETATM   15  O8  UNL     1       1.396   8.007 -12.018  1.00  0.00    -0.624 OA
BRANCH  13  16
HETATM   16  O9  UNL     1       1.586   7.751 -14.524  1.00  0.00    -0.300 OA
HETATM   17  H10 UNL     1       2.251   8.349 -14.898  1.00  0.00     0.223 HD
ENDBRANCH  13  16
ENDBRANCH   7  13
BRANCH   4  18
HETATM   18  O2  UNL     1       2.958   6.190 -10.337  1.00  0.00    -0.390 OA
HETATM   19  H8  UNL     1       3.811   6.529 -10.720  1.00  0.00     0.210 HD
ENDBRANCH   4  18
BRANCH   2  20
HETATM   20  O1  UNL     1       2.093   1.533  -9.419  1.00  0.00    -0.390 OA
HETATM   21  H7  UNL     1       1.266   1.716  -8.896  1.00  0.00     0.210 HD
ENDBRANCH   2  20
BRANCH   3  22
HETATM   22  O3  UNL     1       3.768   3.876  -9.159  1.00  0.00    -0.390 OA
HETATM   23  H9  UNL     1       4.270   3.185  -9.637  1.00  0.00     0.210 HD
ENDBRANCH   3  22
BRANCH   8  24
HETATM   24  P2  UNL     1       0.366   3.488 -14.999  1.00  0.00     0.406 P 
HETATM   25  O10 UNL     1       1.815   3.185 -15.283  1.00  0.00    -0.624 OA
HETATM   26  O11 UNL     1      -0.736   2.739 -15.701  1.00  0.00    -0.624 OA
BRANCH  24  27
HETATM   27  O12 UNL     1       0.158   5.056 -15.307  1.00  0.00    -0.300 OA
HETATM   28  H11 UNL     1      -0.743   5.287 -15.008  1.00  0.00     0.223 HD
ENDBRANCH  24  27
ENDBRANCH   8  24
BRANCH   9  29
HETATM   29  P3  UNL     1      -0.964   2.256  -9.458  1.00  0.00     0.406 P 
HETATM   30  O13 UNL     1      -0.660   0.809  -9.737  1.00  0.00    -0.624 OA
HETATM   31  O14 UNL     1      -2.353   2.759  -9.195  1.00  0.00    -0.624 OA
BRANCH  29  32
HETATM   32  O15 UNL     1      -0.118   2.716  -8.165  1.00  0.00    -0.300 OA
HETATM   33  H12 UNL     1      -0.484   3.596  -7.974  1.00  0.00     0.223 HD
ENDBRANCH  29  32
ENDBRANCH   9  29
TORSDOF 10
ENDMDL
