MODEL 1
REMARK VINA RESULT:      -7.3      0.000      0.000
REMARK  16 active torsions:
REMARK  status: ('A' for Active; 'I' for Inactive)
REMARK    1  A    between atoms: C1_1  and  O2_23 
REMARK    2  A    between atoms: C2_2  and  C12_12 
REMARK    3  A    between atoms: C3_3  and  C6_6 
REMARK    4  A    between atoms: C4_4  and  O3_24 
REMARK    5  A    between atoms: C6_6  and  C7_7 
REMARK    6  A    between atoms: C8_8  and  C9_9 
REMARK    7  A    between atoms: C9_9  and  C10_10 
REMARK    8  A    between atoms: C10_10  and  C11_11 
REMARK    9  A    between atoms: C11_11  and  C22_26 
REMARK   10  A    between atoms: C13_13  and  C14_14 
REMARK   11  A    between atoms: C14_14  and  C15_15 
REMARK   12  A    between atoms: C14_14  and  O4_25 
REMARK   13  A    between atoms: C15_15  and  O1_16 
REMARK   14  A    between atoms: O1_16  and  C16_17 
REMARK   15  A    between atoms: C22_26  and  O6_28 
REMARK   16  A    between atoms: O6_28  and  C23_29 
ROOT
HETATM    1  C1  UNL     1      -1.033  -1.684 -10.801  1.00  0.00     0.128 C 
HETATM    2  C2  UNL     1      -0.052  -0.545 -11.137  1.00  0.00     0.043 C 
HETATM    3  C3  UNL     1      -0.897   0.352 -12.062  1.00  0.00     0.028 C 
HETATM    4  C4  UNL     1      -1.620  -0.675 -12.951  1.00  0.00     0.125 C 
HETATM    5  C5  UNL     1      -1.884  -1.887 -12.056  1.00  0.00     0.064 C 
ENDROOT
BRANCH   2   6
HETATM    6  C12 UNL     1       0.544   0.055  -9.881  1.00  0.00    -0.021 C 
HETATM    7  C13 UNL     1      -0.002   0.122  -8.654  1.00  0.00     0.003 C 
BRANCH   7   8
HETATM    8  C14 UNL     1       0.620   0.740  -7.421  1.00  0.00     0.165 C 
BRANCH   8   9
HETATM    9  C15 UNL     1       0.207   2.215  -7.232  1.00  0.00     0.211 C 
BRANCH   9  10
HETATM   10  O1  UNL     1      -1.208   2.385  -7.421  1.00  0.00    -0.348 OA
BRANCH  10  11
HETATM   11  C16 UNL     1      -1.621   3.435  -8.197  1.00  0.00     0.068 A 
HETATM   12  C17 UNL     1      -2.033   4.688  -7.733  1.00  0.00     0.037 A 
HETATM   13  C18 UNL     1      -2.445   5.672  -8.636  1.00  0.00     0.003 A 
HETATM   14  C19 UNL     1      -2.451   5.415 -10.007  1.00  0.00     0.000 A 
HETATM   15  C20 UNL     1      -2.046   4.167 -10.479  1.00  0.00     0.003 A 
HETATM   16  C21 UNL     1      -1.636   3.182  -9.574  1.00  0.00     0.037 A 
ENDBRANCH  10  11
ENDBRANCH   9  10
ENDBRANCH   8   9
BRANCH   8  17
HETATM   17  O4  UNL     1       2.046   0.658  -7.488  1.00  0.00    -0.390 OA
HETATM   18  H29 UNL     1       2.368   1.572  -7.553  1.00  0.00     0.210 HD
ENDBRANCH   8  17
ENDBRANCH   7   8
ENDBRANCH   2   6
BRANCH   1  19
HETATM   19  O2  UNL     1      -0.324  -2.875 -10.474  1.00  0.00    -0.395 OA
HETATM   20  H27 UNL     1      -0.595  -3.563 -11.111  1.00  0.00     0.210 HD
ENDBRANCH   1  19
BRANCH   3  21
HETATM   21  C6  UNL     1      -0.145   1.466 -12.811  1.00  0.00     0.034 C 
BRANCH  21  22
HETATM   22  C7  UNL     1      -0.962   2.360 -13.701  1.00  0.00    -0.030 C 
HETATM   23  C8  UNL     1      -0.662   2.790 -14.939  1.00  0.00    -0.031 C 
BRANCH  23  24
HETATM   24  C9  UNL     1       0.599   2.530 -15.719  1.00  0.00     0.027 C 
BRANCH  24  25
HETATM   25  C10 UNL     1       1.498   3.765 -15.826  1.00  0.00     0.013 C 
BRANCH  25  26
HETATM   26  C11 UNL     1       0.803   5.045 -15.357  1.00  0.00     0.111 C 
BRANCH  26  27
HETATM   27  C22 UNL     1       1.518   5.650 -14.171  1.00  0.00     0.259 C 
HETATM   28  O5  UNL     1       2.488   6.393 -14.238  1.00  0.00    -0.265 OA
BRANCH  27  29
HETATM   29  O6  UNL     1       0.894   5.272 -13.019  1.00  0.00    -0.317 OA
BRANCH  29  30
HETATM   30  C23 UNL     1       1.655   5.431 -11.807  1.00  0.00     0.123 C 
HETATM   31  C24 UNL     1       1.726   4.065 -11.134  1.00  0.00     0.040 C 
HETATM   32  C25 UNL     1       0.955   6.442 -10.908  1.00  0.00     0.040 C 
ENDBRANCH  29  30
ENDBRANCH  27  29
ENDBRANCH  26  27
ENDBRANCH  25  26
ENDBRANCH  24  25
ENDBRANCH  23  24
ENDBRANCH  21  22
ENDBRANCH   3  21
BRANCH   4  33
HETATM   33  O3  UNL     1      -0.875  -1.099 -14.084  1.00  0.00    -0.395 OA
HETATM   34  H28 UNL     1      -0.325  -1.861 -13.836  1.00  0.00     0.210 HD
ENDBRANCH   4  33
TORSDOF 16
ENDMDL
MODEL 2
REMARK VINA RESULT:      -7.3      2.255      5.879
REMARK  16 active torsions:
REMARK  status: ('A' for Active; 'I' for Inactive)
REMARK    1  A    between atoms: C1_1  and  O2_23 
REMARK    2  A    between atoms: C2_2  and  C12_12 
REMARK    3  A    between atoms: C3_3  and  C6_6 
REMARK    4  A    between atoms: C4_4  and  O3_24 
REMARK    5  A    between atoms: C6_6  and  C7_7 
REMARK    6  A    between atoms: C8_8  and  C9_9 
REMARK    7  A    between atoms: C9_9  and  C10_10 
REMARK    8  A    between atoms: C10_10  and  C11_11 
REMARK    9  A    between atoms: C11_11  and  C22_26 
REMARK   10  A    between atoms: C13_13  and  C14_14 
REMARK   11  A    between atoms: C14_14  and  C15_15 
REMARK   12  A    between atoms: C14_14  and  O4_25 
REMARK   13  A    between atoms: C15_15  and  O1_16 
REMARK   14  A    between atoms: O1_16  and  C16_17 
REMARK   15  A    between atoms: C22_26  and  O6_28 
REMARK   16  A    between atoms: O6_28  and  C23_29 
ROOT
HETATM    1  C1  UNL     1      -0.471  -0.283 -13.316  1.00  0.00     0.128 C 
HETATM    2  C2  UNL     1      -1.190   1.079 -13.306  1.00  0.00     0.043 C 
HETATM    3  C3  UNL     1      -0.929   1.578 -11.872  1.00  0.00     0.028 C 
HETATM    4  C4  UNL     1      -1.136   0.302 -11.035  1.00  0.00     0.125 C 
HETATM    5  C5  UNL     1      -0.635  -0.852 -11.904  1.00  0.00     0.064 C 
ENDROOT
BRANCH   2   6
HETATM    6  C12 UNL     1      -0.750   1.941 -14.471  1.00  0.00    -0.021 C 
HETATM    7  C13 UNL     1       0.394   1.862 -15.175  1.00  0.00     0.003 C 
BRANCH   7   8
HETATM    8  C14 UNL     1       0.807   2.749 -16.329  1.00  0.00     0.165 C 
BRANCH   8   9
HETATM    9  C15 UNL     1       1.994   3.666 -15.969  1.00  0.00     0.211 C 
BRANCH   9  10
HETATM   10  O1  UNL     1       2.178   3.741 -14.545  1.00  0.00    -0.348 OA
BRANCH  10  11
HETATM   11  C16 UNL     1       1.636   4.816 -13.893  1.00  0.00     0.068 A 
HETATM   12  C17 UNL     1       1.448   6.094 -14.429  1.00  0.00     0.037 A 
HETATM   13  C18 UNL     1       0.894   7.111 -13.646  1.00  0.00     0.003 A 
HETATM   14  C19 UNL     1       0.525   6.863 -12.324  1.00  0.00     0.000 A 
HETATM   15  C20 UNL     1       0.712   5.593 -11.780  1.00  0.00     0.003 A 
HETATM   16  C21 UNL     1       1.270   4.577 -12.563  1.00  0.00     0.037 A 
ENDBRANCH  10  11
ENDBRANCH   9  10
ENDBRANCH   8   9
BRANCH   8  17
HETATM   17  O4  UNL     1      -0.294   3.555 -16.757  1.00  0.00    -0.390 OA
HETATM   18  H29 UNL     1      -1.013   3.390 -16.125  1.00  0.00     0.210 HD
ENDBRANCH   8  17
ENDBRANCH   7   8
ENDBRANCH   2   6
BRANCH   1  19
HETATM   19  O2  UNL     1      -1.056  -1.151 -14.280  1.00  0.00    -0.395 OA
HETATM   20  H27 UNL     1      -0.471  -1.926 -14.371  1.00  0.00     0.210 HD
ENDBRANCH   1  19
BRANCH   3  21
HETATM   21  C6  UNL     1      -1.732   2.808 -11.416  1.00  0.00     0.034 C 
BRANCH  21  22
HETATM   22  C7  UNL     1      -1.717   3.127  -9.948  1.00  0.00    -0.030 C 
HETATM   23  C8  UNL     1      -2.066   4.279  -9.350  1.00  0.00    -0.031 C 
BRANCH  23  24
HETATM   24  C9  UNL     1      -2.504   5.559 -10.010  1.00  0.00     0.027 C 
BRANCH  24  25
HETATM   25  C10 UNL     1      -1.840   6.798  -9.403  1.00  0.00     0.013 C 
BRANCH  25  26
HETATM   26  C11 UNL     1      -1.641   6.683  -7.891  1.00  0.00     0.111 C 
BRANCH  26  27
HETATM   27  C22 UNL     1      -0.441   7.482  -7.436  1.00  0.00     0.259 C 
HETATM   28  O5  UNL     1      -0.382   8.703  -7.401  1.00  0.00    -0.265 OA
BRANCH  27  29
HETATM   29  O6  UNL     1       0.548   6.633  -7.037  1.00  0.00    -0.317 OA
BRANCH  29  30
HETATM   30  C23 UNL     1       1.102   5.784  -8.060  1.00  0.00     0.123 C 
HETATM   31  C24 UNL     1       1.203   4.379  -7.476  1.00  0.00     0.040 C 
HETATM   32  C25 UNL     1       2.479   6.308  -8.451  1.00  0.00     0.040 C 
ENDBRANCH  29  30
ENDBRANCH  27  29
ENDBRANCH  26  27
ENDBRANCH  25  26
ENDBRANCH  24  25
ENDBRANCH  23  24
ENDBRANCH  21  22
ENDBRANCH   3  21
BRANCH   4  33
HETATM   33  O3  UNL     1      -2.487   0.049 -10.675  1.00  0.00    -0.395 OA
HETATM   34  H28 UNL     1      -2.831  -0.678 -11.220  1.00  0.00     0.210 HD
ENDBRANCH   4  33
TORSDOF 16
ENDMDL
