MODEL 1
REMARK VINA RESULT:      -8.9      0.000      0.000
REMARK  TG100-115
REMARK  6 active torsions:
REMARK  status: ('A' for Active; 'I' for Inactive)
REMARK    1  A    between atoms: O_1  and  C_20 
REMARK    2  A    between atoms: O_2  and  C_21 
REMARK    3  A    between atoms: N_7  and  C_19 
REMARK    4  A    between atoms: N_8  and  C_26 
REMARK    5  A    between atoms: C_9  and  C_11 
REMARK    6  A    between atoms: C_10  and  C_12 
ROOT
ATOM      1  O           0       4.148   8.640 -13.870  0.00  0.00    -0.359 OA
ATOM      2  H           0       4.698   8.665 -13.068  0.00  0.00     0.217 HD
ENDROOT
BRANCH   1   3
ATOM      3  C           0       2.943   8.089 -13.560  0.00  0.00     0.089 A 
ATOM      4  C           0       2.885   6.919 -12.802  0.00  0.00     0.025 A 
ATOM      5  C           0       1.650   6.351 -12.485  0.00  0.00     0.021 A 
ATOM      6  C           0       0.472   6.958 -12.929  0.00  0.00     0.002 A 
ATOM      7  C           0       0.530   8.127 -13.687  0.00  0.00     0.002 A 
ATOM      8  C           0       1.766   8.692 -14.002  0.00  0.00     0.024 A 
BRANCH   5   9
ATOM      9  C           0       1.588   5.142 -11.699  0.00  0.00     0.099 A 
ATOM     10  N           0       1.738   5.318 -10.376  0.00  0.00    -0.238 NA
ATOM     11  C           0       1.690   4.218  -9.600  0.00  0.00     0.151 A 
ATOM     12  C           0       1.493   2.941 -10.128  0.00  0.00     0.202 A 
ATOM     13  C           0       1.833   4.291  -8.227  0.00  0.00     0.173 A 
ATOM     14  N           0       1.347   2.798 -11.451  0.00  0.00    -0.223 NA
ATOM     15  N           0       1.450   1.864  -9.334  0.00  0.00    -0.041 NA
ATOM     16  C           0       1.395   3.896 -12.229  0.00  0.00     0.101 A 
ATOM     17  C           0       1.602   2.061  -8.012  0.00  0.00     0.724 A 
ATOM     18  N           0       1.795   3.234  -7.397  0.00  0.00    -0.043 NA
BRANCH  16  19
ATOM     19  C           0       1.228   3.643 -13.641  0.00  0.00     0.021 A 
ATOM     20  C           0       0.146   2.886 -14.093  0.00  0.00     0.025 A 
ATOM     21  C           0      -0.014   2.641 -15.457  0.00  0.00     0.089 A 
ATOM     22  C           0       0.907   3.153 -16.371  0.00  0.00     0.024 A 
ATOM     23  C           0       1.988   3.911 -15.921  0.00  0.00     0.002 A 
ATOM     24  C           0       2.148   4.155 -14.557  0.00  0.00     0.002 A 
BRANCH  21  25
ATOM     25  O           0      -1.071   1.904 -15.898  0.00  0.00    -0.359 OA
ATOM     26  H           0      -0.820   0.964 -15.900  0.00  0.00     0.217 HD
ENDBRANCH  21  25
ENDBRANCH  16  19
BRANCH  17  27
ATOM     27  N           0       1.552   0.914  -7.190  0.00  0.00    -0.231 N 
ATOM     28  H           0       2.182   0.839  -6.403  0.00  0.00     0.174 HD
ATOM     29  H           0       0.887   0.183  -7.398  0.00  0.00     0.174 HD
ENDBRANCH  17  27
BRANCH  13  30
ATOM     30  N           0       2.035   5.571  -7.648  0.00  0.00    -0.381 N 
ATOM     31  H           0       2.046   5.621  -6.637  0.00  0.00     0.157 HD
ATOM     32  H           0       1.734   6.386  -8.168  0.00  0.00     0.157 HD
ENDBRANCH  13  30
ENDBRANCH   5   9
ENDBRANCH   1   3
TORSDOF 6
ENDMDL
MODEL 2
REMARK VINA RESULT:      -8.8      0.648      4.539
REMARK  TG100-115
REMARK  6 active torsions:
REMARK  status: ('A' for Active; 'I' for Inactive)
REMARK    1  A    between atoms: O_1  and  C_20 
REMARK    2  A    between atoms: O_2  and  C_21 
REMARK    3  A    between atoms: N_7  and  C_19 
REMARK    4  A    between atoms: N_8  and  C_26 
REMARK    5  A    between atoms: C_9  and  C_11 
REMARK    6  A    between atoms: C_10  and  C_12 
ROOT
ATOM      1  O           0      -1.081   1.837 -15.909  0.00  0.00    -0.359 OA
ATOM      2  H           0      -1.742   2.449 -16.275  0.00  0.00     0.217 HD
ENDROOT
BRANCH   1   3
ATOM      3  C           0      -0.023   2.557 -15.445  0.00  0.00     0.089 A 
ATOM      4  C           0       0.103   2.809 -14.079  0.00  0.00     0.025 A 
ATOM      5  C           0       1.186   3.550 -13.601  0.00  0.00     0.021 A 
ATOM      6  C           0       2.142   4.037 -14.496  0.00  0.00     0.002 A 
ATOM      7  C           0       2.016   3.784 -15.862  0.00  0.00     0.002 A 
ATOM      8  C           0       0.933   3.044 -16.336  0.00  0.00     0.024 A 
BRANCH   5   9
ATOM      9  C           0       1.318   3.810 -12.188  0.00  0.00     0.099 A 
ATOM     10  N           0       1.263   2.721 -11.404  0.00  0.00    -0.238 NA
ATOM     11  C           0       1.380   2.913 -10.076  0.00  0.00     0.151 A 
ATOM     12  C           0       1.553   4.181  -9.518  0.00  0.00     0.202 A 
ATOM     13  C           0       1.336   1.859  -9.183  0.00  0.00     0.173 A 
ATOM     14  N           0       1.605   5.247 -10.326  0.00  0.00    -0.223 NA
ATOM     15  N           0       1.667   4.345  -8.194  0.00  0.00    -0.041 NA
ATOM     16  C           0       1.488   5.058 -11.653  0.00  0.00     0.101 A 
ATOM     17  C           0       1.609   3.241  -7.426  0.00  0.00     0.724 A 
ATOM     18  N           0       1.447   1.982  -7.849  0.00  0.00    -0.043 NA
BRANCH  16  19
ATOM     19  C           0       1.555   6.265 -12.444  0.00  0.00     0.021 A 
ATOM     20  C           0       2.791   6.847 -12.729  0.00  0.00     0.025 A 
ATOM     21  C           0       2.856   8.013 -13.491  0.00  0.00     0.089 A 
ATOM     22  C           0       1.685   8.599 -13.970  0.00  0.00     0.024 A 
ATOM     23  C           0       0.449   8.019 -13.686  0.00  0.00     0.002 A 
ATOM     24  C           0       0.384   6.853 -12.924  0.00  0.00     0.002 A 
BRANCH  21  25
ATOM     25  O           0       4.063   8.578 -13.771  0.00  0.00    -0.359 OA
ATOM     26  H           0       4.080   9.480 -13.406  0.00  0.00     0.217 HD
ENDBRANCH  21  25
ENDBRANCH  16  19
BRANCH  17  27
ATOM     27  N           0       1.731   3.432  -6.032  0.00  0.00    -0.231 N 
ATOM     28  H           0       2.276   4.209  -5.683  0.00  0.00     0.174 HD
ATOM     29  H           0       1.272   2.791  -5.400  0.00  0.00     0.174 HD
ENDBRANCH  17  27
BRANCH  13  30
ATOM     30  N           0       1.162   0.551  -9.707  0.00  0.00    -0.381 N 
ATOM     31  H           0       1.732  -0.183  -9.308  0.00  0.00     0.157 HD
ATOM     32  H           0       0.855   0.457 -10.667  0.00  0.00     0.157 HD
ENDBRANCH  13  30
ENDBRANCH   5   9
ENDBRANCH   1   3
TORSDOF 6
ENDMDL
