MODEL 1
REMARK VINA RESULT:      -6.5      0.000      0.000
REMARK  15 active torsions:
REMARK  status: ('A' for Active; 'I' for Inactive)
REMARK    1  A    between atoms: C1_1  and  C5_5 
REMARK    2  A    between atoms: C2_2  and  C12_12 
REMARK    3  A    between atoms: C3_3  and  C6_6 
REMARK    4  A    between atoms: C4_4  and  C5_5 
REMARK    5  A    between atoms: C6_6  and  C7_7 
REMARK    6  A    between atoms: C7_7  and  C8_8 
REMARK    7  A    between atoms: C8_8  and  C9_9 
REMARK    8  A    between atoms: C9_9  and  C10_10 
REMARK    9  A    between atoms: C10_10  and  C11_11 
REMARK   10  A    between atoms: C11_11  and  C20_20 
REMARK   11  A    between atoms: C12_12  and  C13_13 
REMARK   12  A    between atoms: C14_14  and  C15_15 
REMARK   13  A    between atoms: C15_15  and  C16_16 
REMARK   14  A    between atoms: C17_17  and  C18_18 
REMARK   15  A    between atoms: C20_20  and  O2_22 
ROOT
HETATM    1  C3  UNL     1       0.276   3.393 -16.395  1.00  0.00    -0.030 C 
HETATM    2  C4  UNL     1      -0.685   2.808 -15.660  1.00  0.00    -0.027 C 
ENDROOT
BRANCH   2   3
HETATM    3  C5  UNL     1      -0.512   2.034 -14.386  1.00  0.00     0.053 C 
BRANCH   3   4
HETATM    4  C1  UNL     1      -1.146   2.757 -13.231  1.00  0.00    -0.027 C 
HETATM    5  C2  UNL     1      -0.724   2.800 -11.955  1.00  0.00    -0.027 C 
BRANCH   5   6
HETATM    6  C12 UNL     1       0.510   2.174 -11.373  1.00  0.00     0.053 C 
BRANCH   6   7
HETATM    7  C13 UNL     1       1.673   3.123 -11.429  1.00  0.00    -0.027 C 
HETATM    8  C14 UNL     1       1.873   4.215 -10.670  1.00  0.00    -0.027 C 
BRANCH   8   9
HETATM    9  C15 UNL     1       1.009   4.720  -9.550  1.00  0.00     0.053 C 
BRANCH   9  10
HETATM   10  C16 UNL     1       0.425   6.063  -9.881  1.00  0.00    -0.027 C 
HETATM   11  C17 UNL     1      -0.866   6.378 -10.083  1.00  0.00    -0.031 C 
BRANCH  11  12
HETATM   12  C18 UNL     1      -2.054   5.462 -10.023  1.00  0.00     0.022 C 
HETATM   13  C19 UNL     1      -2.394   5.093  -8.586  1.00  0.00     0.009 C 
ENDBRANCH  11  12
ENDBRANCH   9  10
ENDBRANCH   8   9
ENDBRANCH   6   7
ENDBRANCH   5   6
ENDBRANCH   3   4
ENDBRANCH   2   3
BRANCH   1  14
HETATM   14  C6  UNL     1       1.747   3.422 -16.095  1.00  0.00     0.027 C 
BRANCH  14  15
HETATM   15  C7  UNL     1       2.150   4.321 -14.920  1.00  0.00     0.004 C 
BRANCH  15  16
HETATM   16  C8  UNL     1       1.472   5.695 -14.870  1.00  0.00     0.000 C 
BRANCH  16  17
HETATM   17  C9  UNL     1       0.962   6.100 -13.488  1.00  0.00     0.001 C 
BRANCH  17  18
HETATM   18  C10 UNL     1       0.878   7.622 -13.348  1.00  0.00     0.010 C 
BRANCH  18  19
HETATM   19  C11 UNL     1       1.867   8.319 -14.274  1.00  0.00     0.110 C 
BRANCH  19  20
HETATM   20  C20 UNL     1       2.954   8.995 -13.491  1.00  0.00     0.139 C 
HETATM   21  O1  UNL     1       2.804   9.871 -12.655  1.00  0.00    -0.650 OA
BRANCH  20  22
HETATM   22  O2  UNL     1       4.182   8.539 -13.796  1.00  0.00    -0.776 OA
HETATM   23  H32 UNL     1       4.144   7.589 -13.558  1.00  0.00     0.167 HD
ENDBRANCH  20  22
ENDBRANCH  19  20
ENDBRANCH  18  19
ENDBRANCH  17  18
ENDBRANCH  16  17
ENDBRANCH  15  16
ENDBRANCH  14  15
ENDBRANCH   1  14
TORSDOF 15
ENDMDL
MODEL 2
REMARK VINA RESULT:      -6.4      2.571      4.918
REMARK  15 active torsions:
REMARK  status: ('A' for Active; 'I' for Inactive)
REMARK    1  A    between atoms: C1_1  and  C5_5 
REMARK    2  A    between atoms: C2_2  and  C12_12 
REMARK    3  A    between atoms: C3_3  and  C6_6 
REMARK    4  A    between atoms: C4_4  and  C5_5 
REMARK    5  A    between atoms: C6_6  and  C7_7 
REMARK    6  A    between atoms: C7_7  and  C8_8 
REMARK    7  A    between atoms: C8_8  and  C9_9 
REMARK    8  A    between atoms: C9_9  and  C10_10 
REMARK    9  A    between atoms: C10_10  and  C11_11 
REMARK   10  A    between atoms: C11_11  and  C20_20 
REMARK   11  A    between atoms: C12_12  and  C13_13 
REMARK   12  A    between atoms: C14_14  and  C15_15 
REMARK   13  A    between atoms: C15_15  and  C16_16 
REMARK   14  A    between atoms: C17_17  and  C18_18 
REMARK   15  A    between atoms: C20_20  and  O2_22 
ROOT
HETATM    1  C3  UNL     1      -0.605   1.900 -13.294  1.00  0.00    -0.030 C 
HETATM    2  C4  UNL     1      -0.581   1.840 -14.636  1.00  0.00    -0.027 C 
ENDROOT
BRANCH   2   3
HETATM    3  C5  UNL     1      -0.632   2.991 -15.599  1.00  0.00     0.053 C 
BRANCH   3   4
HETATM    4  C1  UNL     1       0.678   3.145 -16.318  1.00  0.00    -0.027 C 
HETATM    5  C2  UNL     1       1.766   3.822 -15.913  1.00  0.00    -0.027 C 
BRANCH   5   6
HETATM    6  C12 UNL     1       1.961   4.558 -14.618  1.00  0.00     0.053 C 
BRANCH   6   7
HETATM    7  C13 UNL     1       1.467   5.972 -14.723  1.00  0.00    -0.027 C 
HETATM    8  C14 UNL     1       0.986   6.745 -13.734  1.00  0.00    -0.027 C 
BRANCH   8   9
HETATM    9  C15 UNL     1       0.873   6.399 -12.277  1.00  0.00     0.053 C 
BRANCH   9  10
HETATM   10  C16 UNL     1       2.206   6.493 -11.595  1.00  0.00    -0.027 C 
HETATM   11  C17 UNL     1       2.740   5.645 -10.699  1.00  0.00    -0.031 C 
BRANCH  11  12
HETATM   12  C18 UNL     1       2.135   4.382 -10.157  1.00  0.00     0.022 C 
HETATM   13  C19 UNL     1       2.682   3.156 -10.874  1.00  0.00     0.009 C 
ENDBRANCH  11  12
ENDBRANCH   9  10
ENDBRANCH   8   9
ENDBRANCH   6   7
ENDBRANCH   5   6
ENDBRANCH   3   4
ENDBRANCH   2   3
BRANCH   1  14
HETATM   14  C6  UNL     1      -0.669   3.139 -12.448  1.00  0.00     0.027 C 
BRANCH  14  15
HETATM   15  C7  UNL     1      -1.679   3.083 -11.294  1.00  0.00     0.004 C 
BRANCH  15  16
HETATM   16  C8  UNL     1      -1.451   4.091 -10.161  1.00  0.00     0.000 C 
BRANCH  16  17
HETATM   17  C9  UNL     1      -2.476   5.223 -10.106  1.00  0.00     0.001 C 
BRANCH  17  18
HETATM   18  C10 UNL     1      -1.800   6.576  -9.867  1.00  0.00     0.010 C 
BRANCH  18  19
HETATM   19  C11 UNL     1      -0.701   6.468  -8.818  1.00  0.00     0.110 C 
BRANCH  19  20
HETATM   20  C20 UNL     1      -0.971   7.380  -7.658  1.00  0.00     0.139 C 
HETATM   21  O1  UNL     1      -1.580   8.437  -7.697  1.00  0.00    -0.650 OA
BRANCH  20  22
HETATM   22  O2  UNL     1      -0.461   6.922  -6.500  1.00  0.00    -0.776 OA
HETATM   23  H32 UNL     1       0.265   6.329  -6.784  1.00  0.00     0.167 HD
ENDBRANCH  20  22
ENDBRANCH  19  20
ENDBRANCH  18  19
ENDBRANCH  17  18
ENDBRANCH  16  17
ENDBRANCH  15  16
ENDBRANCH  14  15
ENDBRANCH   1  14
TORSDOF 15
ENDMDL
