MODEL 1
REMARK VINA RESULT:      -6.9      0.000      0.000
REMARK  17 active torsions:
REMARK  status: ('A' for Active; 'I' for Inactive)
REMARK    1  A    between atoms: C1_1  and  C8_8 
REMARK    2  A    between atoms: C2_2  and  C5_5 
REMARK    3  A    between atoms: C3_3  and  C4_4 
REMARK    4  A    between atoms: C4_4  and  C22_25 
REMARK    5  A    between atoms: C5_5  and  C6_6 
REMARK    6  A    between atoms: C7_7  and  C11_11 
REMARK    7  A    between atoms: C8_8  and  C9_9 
REMARK    8  A    between atoms: C10_10  and  C15_15 
REMARK    9  A    between atoms: C11_11  and  C12_12 
REMARK   10  A    between atoms: C12_12  and  C13_13 
REMARK   11  A    between atoms: C13_13  and  C14_14 
REMARK       I    between atoms: C14_14  and  N1_20 
REMARK   12  A    between atoms: C15_15  and  C16_16 
REMARK   13  A    between atoms: C16_16  and  C17_17 
REMARK   14  A    between atoms: C17_17  and  C18_18 
REMARK   15  A    between atoms: N1_20  and  C20_21 
REMARK   16  A    between atoms: C20_21  and  C21_22 
REMARK   17  A    between atoms: C21_22  and  O1_23 
ROOT
HETATM    1  C5  UNL     1       0.346   1.905 -15.521  1.00  0.00     0.053 C 
ENDROOT
BRANCH   1   2
HETATM    2  C2  UNL     1      -0.772   2.619 -14.818  1.00  0.00    -0.027 C 
HETATM    3  C3  UNL     1      -1.030   2.653 -13.499  1.00  0.00    -0.027 C 
BRANCH   3   4
HETATM    4  C4  UNL     1      -0.255   1.995 -12.394  1.00  0.00     0.053 C 
BRANCH   4   5
HETATM    5  C22 UNL     1       0.900   2.852 -11.959  1.00  0.00    -0.027 C 
HETATM    6  C1  UNL     1       1.515   2.859 -10.763  1.00  0.00    -0.027 C 
BRANCH   6   7
HETATM    7  C8  UNL     1       1.183   2.033  -9.552  1.00  0.00     0.053 C 
BRANCH   7   8
HETATM    8  C9  UNL     1       0.817   2.913  -8.391  1.00  0.00    -0.027 C 
HETATM    9  C10 UNL     1      -0.391   3.421  -8.096  1.00  0.00    -0.030 C 
BRANCH   9  10
HETATM   10  C15 UNL     1      -1.679   3.201  -8.839  1.00  0.00     0.027 C 
BRANCH  10  11
HETATM   11  C16 UNL     1      -1.853   4.137 -10.037  1.00  0.00     0.004 C 
BRANCH  11  12
HETATM   12  C17 UNL     1      -2.624   5.418  -9.701  1.00  0.00    -0.000 C 
BRANCH  12  13
HETATM   13  C18 UNL     1      -1.763   6.660  -9.943  1.00  0.00    -0.005 C 
HETATM   14  C19 UNL     1      -0.349   6.285 -10.356  1.00  0.00     0.005 C 
ENDBRANCH  12  13
ENDBRANCH  11  12
ENDBRANCH  10  11
ENDBRANCH   9  10
ENDBRANCH   7   8
ENDBRANCH   6   7
ENDBRANCH   4   5
ENDBRANCH   3   4
ENDBRANCH   1   2
BRANCH   1  15
HETATM   15  C6  UNL     1       0.958   2.782 -16.577  1.00  0.00    -0.027 C 
HETATM   16  C7  UNL     1       1.716   3.876 -16.395  1.00  0.00    -0.030 C 
BRANCH  16  17
HETATM   17  C11 UNL     1       2.088   4.508 -15.083  1.00  0.00     0.027 C 
BRANCH  17  18
HETATM   18  C12 UNL     1       1.170   5.666 -14.686  1.00  0.00     0.013 C 
BRANCH  18  19
HETATM   19  C13 UNL     1       1.494   6.251 -13.312  1.00  0.00     0.103 C 
BRANCH  19  20
HETATM   20  C14 UNL     1       2.460   7.416 -13.402  1.00  0.00     0.217 C 
HETATM   21  N1  UNL     1       1.839   8.638 -13.233  1.00  0.00    -0.355 N 
HETATM   22  H31 UNL     1       0.955   8.635 -12.738  1.00  0.00     0.162 HD
HETATM   23  O2  UNL     1       3.663   7.296 -13.608  1.00  0.00    -0.274 OA
BRANCH  21  24
HETATM   24  C20 UNL     1       2.622   9.866 -13.116  1.00  0.00     0.104 C 
HETATM   25  C23 UNL     1       1.801  11.043 -13.636  1.00  0.00     0.034 C 
BRANCH  24  26
HETATM   26  C21 UNL     1       3.069  10.087 -11.660  1.00  0.00     0.189 C 
BRANCH  26  27
HETATM   27  O1  UNL     1       2.530  11.309 -11.153  1.00  0.00    -0.399 OA
HETATM   28  H35 UNL     1       2.180  11.796 -11.922  1.00  0.00     0.209 HD
ENDBRANCH  26  27
ENDBRANCH  24  26
ENDBRANCH  21  24
ENDBRANCH  19  20
ENDBRANCH  18  19
ENDBRANCH  17  18
ENDBRANCH  16  17
ENDBRANCH   1  15
TORSDOF 17
ENDMDL
MODEL 2
REMARK VINA RESULT:      -6.6      1.543      2.732
REMARK  17 active torsions:
REMARK  status: ('A' for Active; 'I' for Inactive)
REMARK    1  A    between atoms: C1_1  and  C8_8 
REMARK    2  A    between atoms: C2_2  and  C5_5 
REMARK    3  A    between atoms: C3_3  and  C4_4 
REMARK    4  A    between atoms: C4_4  and  C22_25 
REMARK    5  A    between atoms: C5_5  and  C6_6 
REMARK    6  A    between atoms: C7_7  and  C11_11 
REMARK    7  A    between atoms: C8_8  and  C9_9 
REMARK    8  A    between atoms: C10_10  and  C15_15 
REMARK    9  A    between atoms: C11_11  and  C12_12 
REMARK   10  A    between atoms: C12_12  and  C13_13 
REMARK   11  A    between atoms: C13_13  and  C14_14 
REMARK       I    between atoms: C14_14  and  N1_20 
REMARK   12  A    between atoms: C15_15  and  C16_16 
REMARK   13  A    between atoms: C16_16  and  C17_17 
REMARK   14  A    between atoms: C17_17  and  C18_18 
REMARK   15  A    between atoms: N1_20  and  C20_21 
REMARK   16  A    between atoms: C20_21  and  C21_22 
REMARK   17  A    between atoms: C21_22  and  O1_23 
ROOT
HETATM    1  C5  UNL     1      -0.309   2.500 -13.357  1.00  0.00     0.053 C 
ENDROOT
BRANCH   1   2
HETATM    2  C2  UNL     1      -0.603   1.170 -12.727  1.00  0.00    -0.027 C 
HETATM    3  C3  UNL     1      -0.626   0.863 -11.418  1.00  0.00    -0.027 C 
BRANCH   3   4
HETATM    4  C4  UNL     1      -0.375   1.779 -10.255  1.00  0.00     0.053 C 
BRANCH   4   5
HETATM    5  C22 UNL     1       1.052   1.687  -9.793  1.00  0.00    -0.027 C 
HETATM    6  C1  UNL     1       2.096   2.436 -10.190  1.00  0.00    -0.027 C 
BRANCH   6   7
HETATM    7  C8  UNL     1       2.104   3.533 -11.217  1.00  0.00     0.053 C 
BRANCH   7   8
HETATM    8  C9  UNL     1       1.950   4.876 -10.563  1.00  0.00    -0.027 C 
HETATM    9  C10 UNL     1       0.837   5.624 -10.475  1.00  0.00    -0.030 C 
BRANCH   9  10
HETATM   10  C15 UNL     1      -0.535   5.278 -10.981  1.00  0.00     0.027 C 
BRANCH  10  11
HETATM   11  C16 UNL     1      -1.660   5.807 -10.089  1.00  0.00     0.004 C 
BRANCH  11  12
HETATM   12  C17 UNL     1      -2.223   4.752  -9.131  1.00  0.00    -0.000 C 
BRANCH  12  13
HETATM   13  C18 UNL     1      -1.733   4.988  -7.700  1.00  0.00    -0.005 C 
HETATM   14  C19 UNL     1      -0.573   4.069  -7.351  1.00  0.00     0.005 C 
ENDBRANCH  12  13
ENDBRANCH  11  12
ENDBRANCH  10  11
ENDBRANCH   9  10
ENDBRANCH   7   8
ENDBRANCH   6   7
ENDBRANCH   4   5
ENDBRANCH   3   4
ENDBRANCH   1   2
BRANCH   1  15
HETATM   15  C6  UNL     1      -1.034   2.642 -14.666  1.00  0.00    -0.027 C 
HETATM   16  C7  UNL     1      -0.499   2.685 -15.897  1.00  0.00    -0.030 C 
BRANCH  16  17
HETATM   17  C11 UNL     1       0.961   2.650 -16.248  1.00  0.00     0.027 C 
BRANCH  17  18
HETATM   18  C12 UNL     1       1.610   4.036 -16.280  1.00  0.00     0.013 C 
BRANCH  18  19
HETATM   19  C13 UNL     1       2.244   4.438 -14.949  1.00  0.00     0.103 C 
BRANCH  19  20
HETATM   20  C14 UNL     1       1.624   5.700 -14.380  1.00  0.00     0.217 C 
HETATM   21  N1  UNL     1       2.568   6.607 -13.942  1.00  0.00    -0.355 N 
HETATM   22  H31 UNL     1       3.495   6.529 -14.342  1.00  0.00     0.162 HD
HETATM   23  O2  UNL     1       0.415   5.898 -14.308  1.00  0.00    -0.274 OA
BRANCH  21  24
HETATM   24  C20 UNL     1       2.177   7.950 -13.521  1.00  0.00     0.104 C 
HETATM   25  C23 UNL     1       2.742   8.232 -12.131  1.00  0.00     0.034 C 
BRANCH  24  26
HETATM   26  C21 UNL     1       2.645   8.998 -14.546  1.00  0.00     0.189 C 
BRANCH  26  27
HETATM   27  O1  UNL     1       4.072   9.026 -14.614  1.00  0.00    -0.399 OA
HETATM   28  H35 UNL     1       4.388   8.264 -14.094  1.00  0.00     0.209 HD
ENDBRANCH  26  27
ENDBRANCH  24  26
ENDBRANCH  21  24
ENDBRANCH  19  20
ENDBRANCH  18  19
ENDBRANCH  17  18
ENDBRANCH  16  17
ENDBRANCH   1  15
TORSDOF 17
ENDMDL
