MODEL 1
REMARK VINA RESULT:      -6.3      0.000      0.000
REMARK  17 active torsions:
REMARK  status: ('A' for Active; 'I' for Inactive)
REMARK    1  A    between atoms: C1_1  and  C2_2 
REMARK    2  A    between atoms: C1_1  and  N1_21 
REMARK    3  A    between atoms: C2_2  and  C3_3 
REMARK    4  A    between atoms: C3_3  and  C4_4 
REMARK    5  A    between atoms: C4_4  and  C5_5 
REMARK    6  A    between atoms: C6_6  and  C7_7 
REMARK    7  A    between atoms: C7_7  and  C8_8 
REMARK    8  A    between atoms: C9_9  and  C10_10 
REMARK    9  A    between atoms: C10_10  and  C11_11 
REMARK   10  A    between atoms: C12_12  and  C13_13 
REMARK   11  A    between atoms: C13_13  and  C14_14 
REMARK   12  A    between atoms: C15_15  and  C16_16 
REMARK   13  A    between atoms: C16_16  and  C17_17 
REMARK   14  A    between atoms: C17_17  and  C18_18 
REMARK   15  A    between atoms: C18_18  and  C19_19 
REMARK       I    between atoms: N1_21  and  C21_22 
REMARK   16  A    between atoms: C21_22  and  C22_24 
REMARK   17  A    between atoms: C26_28  and  O2_30 
ROOT
HETATM    1  C4  UNL     1      -0.684   1.237 -13.331  1.00  0.00     0.027 C 
ENDROOT
BRANCH   1   2
HETATM    2  C3  UNL     1      -0.708   0.197 -12.207  1.00  0.00     0.005 C 
BRANCH   2   3
HETATM    3  C2  UNL     1      -2.125  -0.118 -11.711  1.00  0.00     0.020 C 
BRANCH   3   4
HETATM    4  C1  UNL     1      -2.284   0.104 -10.207  1.00  0.00     0.123 C 
BRANCH   4   5
HETATM    5  N1  UNL     1      -2.218   1.498  -9.823  1.00  0.00    -0.357 N 
HETATM    6  C21 UNL     1      -1.352   1.938  -8.841  1.00  0.00     0.251 C 
HETATM    7  O1  UNL     1      -0.582   1.202  -8.236  1.00  0.00    -0.268 OA
HETATM    8  H34 UNL     1      -2.968   2.104 -10.119  1.00  0.00     0.162 HD
BRANCH   6   9
HETATM    9  C22 UNL     1      -1.421   3.386  -8.507  1.00  0.00     0.032 A 
HETATM   10  C23 UNL     1      -0.974   3.883  -7.275  1.00  0.00     0.020 A 
HETATM   11  C27 UNL     1      -1.070   5.250  -7.000  1.00  0.00     0.037 A 
HETATM   12  C26 UNL     1      -1.615   6.109  -7.949  1.00  0.00     0.065 A 
HETATM   13  C25 UNL     1      -2.074   5.628  -9.172  1.00  0.00     0.037 A 
HETATM   14  C24 UNL     1      -1.982   4.262  -9.448  1.00  0.00     0.020 A 
BRANCH  12  15
HETATM   15  O2  UNL     1      -1.689   7.434  -7.633  1.00  0.00    -0.361 OA
HETATM   16  H39 UNL     1      -1.316   7.565  -6.745  1.00  0.00     0.217 HD
ENDBRANCH  12  15
ENDBRANCH   6   9
ENDBRANCH   4   5
ENDBRANCH   3   4
ENDBRANCH   2   3
ENDBRANCH   1   2
BRANCH   1  17
HETATM   17  C5  UNL     1      -0.947   2.635 -12.845  1.00  0.00    -0.030 C 
HETATM   18  C6  UNL     1      -0.066   3.472 -12.272  1.00  0.00    -0.027 C 
BRANCH  18  19
HETATM   19  C7  UNL     1       1.395   3.237 -12.021  1.00  0.00     0.053 C 
BRANCH  19  20
HETATM   20  C8  UNL     1       1.605   2.542 -10.707  1.00  0.00    -0.027 C 
HETATM   21  C9  UNL     1       2.254   3.002  -9.624  1.00  0.00    -0.027 C 
BRANCH  21  22
HETATM   22  C10 UNL     1       2.958   4.319  -9.460  1.00  0.00     0.053 C 
BRANCH  22  23
HETATM   23  C11 UNL     1       1.997   5.402  -9.060  1.00  0.00    -0.027 C 
HETATM   24  C12 UNL     1       1.604   6.463  -9.786  1.00  0.00    -0.027 C 
BRANCH  24  25
HETATM   25  C13 UNL     1       1.993   6.809 -11.194  1.00  0.00     0.053 C 
BRANCH  25  26
HETATM   26  C14 UNL     1       0.781   7.047 -12.049  1.00  0.00    -0.027 C 
HETATM   27  C15 UNL     1       0.683   6.939 -13.384  1.00  0.00    -0.030 C 
BRANCH  27  28
HETATM   28  C16 UNL     1       1.777   6.598 -14.355  1.00  0.00     0.027 C 
BRANCH  28  29
HETATM   29  C17 UNL     1       1.617   5.212 -14.989  1.00  0.00     0.004 C 
BRANCH  29  30
HETATM   30  C18 UNL     1       0.234   4.903 -15.574  1.00  0.00    -0.000 C 
BRANCH  30  31
HETATM   31  C19 UNL     1       0.203   3.627 -16.417  1.00  0.00    -0.005 C 
HETATM   32  C20 UNL     1       1.440   2.774 -16.178  1.00  0.00     0.005 C 
ENDBRANCH  30  31
ENDBRANCH  29  30
ENDBRANCH  28  29
ENDBRANCH  27  28
ENDBRANCH  25  26
ENDBRANCH  24  25
ENDBRANCH  22  23
ENDBRANCH  21  22
ENDBRANCH  19  20
ENDBRANCH  18  19
ENDBRANCH   1  17
TORSDOF 17
ENDMDL
MODEL 2
REMARK VINA RESULT:      -6.2      2.279      6.273
REMARK  17 active torsions:
REMARK  status: ('A' for Active; 'I' for Inactive)
REMARK    1  A    between atoms: C1_1  and  C2_2 
REMARK    2  A    between atoms: C1_1  and  N1_21 
REMARK    3  A    between atoms: C2_2  and  C3_3 
REMARK    4  A    between atoms: C3_3  and  C4_4 
REMARK    5  A    between atoms: C4_4  and  C5_5 
REMARK    6  A    between atoms: C6_6  and  C7_7 
REMARK    7  A    between atoms: C7_7  and  C8_8 
REMARK    8  A    between atoms: C9_9  and  C10_10 
REMARK    9  A    between atoms: C10_10  and  C11_11 
REMARK   10  A    between atoms: C12_12  and  C13_13 
REMARK   11  A    between atoms: C13_13  and  C14_14 
REMARK   12  A    between atoms: C15_15  and  C16_16 
REMARK   13  A    between atoms: C16_16  and  C17_17 
REMARK   14  A    between atoms: C17_17  and  C18_18 
REMARK   15  A    between atoms: C18_18  and  C19_19 
REMARK       I    between atoms: N1_21  and  C21_22 
REMARK   16  A    between atoms: C21_22  and  C22_24 
REMARK   17  A    between atoms: C26_28  and  O2_30 
ROOT
HETATM    1  C4  UNL     1       2.032   4.502 -14.804  1.00  0.00     0.027 C 
ENDROOT
BRANCH   1   2
HETATM    2  C3  UNL     1       1.098   5.527 -14.156  1.00  0.00     0.005 C 
BRANCH   2   3
HETATM    3  C2  UNL     1       1.535   6.977 -14.401  1.00  0.00     0.020 C 
BRANCH   3   4
HETATM    4  C1  UNL     1       2.536   7.474 -13.358  1.00  0.00     0.123 C 
BRANCH   4   5
HETATM    5  N1  UNL     1       2.640   6.606 -12.205  1.00  0.00    -0.357 N 
HETATM    6  C21 UNL     1       2.548   7.098 -10.918  1.00  0.00     0.251 C 
HETATM    7  O1  UNL     1       2.364   8.280 -10.655  1.00  0.00    -0.268 OA
HETATM    8  H34 UNL     1       3.007   5.677 -12.347  1.00  0.00     0.162 HD
BRANCH   6   9
HETATM    9  C22 UNL     1       2.724   6.106  -9.823  1.00  0.00     0.032 A 
HETATM   10  C23 UNL     1       3.234   4.822 -10.063  1.00  0.00     0.020 A 
HETATM   11  C27 UNL     1       3.371   3.918  -9.006  1.00  0.00     0.037 A 
HETATM   12  C26 UNL     1       2.993   4.295  -7.722  1.00  0.00     0.065 A 
HETATM   13  C25 UNL     1       2.472   5.562  -7.470  1.00  0.00     0.037 A 
HETATM   14  C24 UNL     1       2.333   6.467  -8.526  1.00  0.00     0.020 A 
BRANCH  12  15
HETATM   15  O2  UNL     1       3.142   3.377  -6.724  1.00  0.00    -0.361 OA
HETATM   16  H39 UNL     1       3.028   2.488  -7.098  1.00  0.00     0.217 HD
ENDBRANCH  12  15
ENDBRANCH   6   9
ENDBRANCH   4   5
ENDBRANCH   3   4
ENDBRANCH   2   3
ENDBRANCH   1   2
BRANCH   1  17
HETATM   17  C5  UNL     1       1.589   4.089 -16.179  1.00  0.00    -0.030 C 
HETATM   18  C6  UNL     1       0.416   3.529 -16.518  1.00  0.00    -0.027 C 
BRANCH  18  19
HETATM   19  C7  UNL     1      -0.748   3.222 -15.621  1.00  0.00     0.053 C 
BRANCH  19  20
HETATM   20  C8  UNL     1      -0.592   1.870 -14.988  1.00  0.00    -0.027 C 
HETATM   21  C9  UNL     1      -0.604   1.564 -13.679  1.00  0.00    -0.027 C 
BRANCH  21  22
HETATM   22  C10 UNL     1      -0.752   2.502 -12.514  1.00  0.00     0.053 C 
BRANCH  22  23
HETATM   23  C11 UNL     1       0.556   2.691 -11.800  1.00  0.00    -0.027 C 
HETATM   24  C12 UNL     1       1.116   1.885 -10.881  1.00  0.00    -0.027 C 
BRANCH  24  25
HETATM   25  C13 UNL     1       0.597   0.573 -10.369  1.00  0.00     0.053 C 
BRANCH  25  26
HETATM   26  C14 UNL     1       0.321   0.636  -8.895  1.00  0.00    -0.027 C 
HETATM   27  C15 UNL     1      -0.742   1.182  -8.280  1.00  0.00    -0.030 C 
BRANCH  27  28
HETATM   28  C16 UNL     1      -1.894   1.904  -8.918  1.00  0.00     0.027 C 
BRANCH  28  29
HETATM   29  C17 UNL     1      -2.034   3.357  -8.450  1.00  0.00     0.004 C 
BRANCH  29  30
HETATM   30  C18 UNL     1      -0.808   4.250  -8.676  1.00  0.00    -0.000 C 
BRANCH  30  31
HETATM   31  C19 UNL     1      -1.009   5.287  -9.783  1.00  0.00    -0.005 C 
HETATM   32  C20 UNL     1      -2.484   5.586 -10.003  1.00  0.00     0.005 C 
ENDBRANCH  30  31
ENDBRANCH  29  30
ENDBRANCH  28  29
ENDBRANCH  27  28
ENDBRANCH  25  26
ENDBRANCH  24  25
ENDBRANCH  22  23
ENDBRANCH  21  22
ENDBRANCH  19  20
ENDBRANCH  18  19
ENDBRANCH   1  17
TORSDOF 17
ENDMDL
