MODEL 1
REMARK VINA RESULT:      -8.8      0.000      0.000
REMARK  6 active torsions:
REMARK  status: ('A' for Active; 'I' for Inactive)
REMARK    1  A    between atoms: C7_7  and  C14_15 
REMARK    2  A    between atoms: N1_9  and  C9_10 
REMARK    3  A    between atoms: C9_10  and  C10_11 
REMARK    4  A    between atoms: C10_11  and  C11_12 
REMARK    5  A    between atoms: C11_12  and  C12_13 
REMARK    6  A    between atoms: C14_15  and  C15_16 
ROOT
HETATM    1  C1  UNL     1       0.075   2.376 -15.190  1.00  0.00     0.015 A 
HETATM    2  C2  UNL     1       0.289   3.290 -14.132  1.00  0.00     0.006 A 
HETATM    3  C3  UNL     1       1.109   4.400 -14.385  1.00  0.00     0.045 A 
HETATM    4  C4  UNL     1       1.690   4.634 -15.642  1.00  0.00     0.030 A 
HETATM    5  C5  UNL     1       1.444   3.718 -16.668  1.00  0.00     0.002 A 
HETATM    6  C6  UNL     1       0.650   2.601 -16.446  1.00  0.00     0.001 A 
HETATM    7  C7  UNL     1      -0.134   3.370 -12.760  1.00  0.00     0.043 A 
HETATM    8  C8  UNL     1       0.469   4.498 -12.230  1.00  0.00     0.107 A 
HETATM    9  N1  UNL     1       1.199   5.111 -13.209  1.00  0.00    -0.355 N 
ENDROOT
BRANCH   7  10
HETATM   10  C14 UNL     1      -0.997   2.499 -11.963  1.00  0.00     0.195 C 
HETATM   11  O1  UNL     1      -2.198   2.716 -11.808  1.00  0.00    -0.287 OA
BRANCH  10  12
HETATM   12  C15 UNL     1      -0.423   1.284 -11.352  1.00  0.00     0.026 A 
HETATM   13  C16 UNL     1      -0.393   0.120 -12.135  1.00  0.00     0.016 A 
HETATM   14  C17 UNL     1       0.133  -1.053 -11.607  1.00  0.00     0.002 A 
HETATM   15  C18 UNL     1       0.623  -1.064 -10.301  1.00  0.00     0.012 A 
HETATM   16  C19 UNL     1       0.592   0.090  -9.500  1.00  0.00    -0.025 A 
HETATM   17  C20 UNL     1       0.055   1.293 -10.016  1.00  0.00    -0.012 A 
HETATM   18  C21 UNL     1       1.092   0.057  -8.186  1.00  0.00     0.019 A 
HETATM   19  C24 UNL     1       0.039   2.428  -9.175  1.00  0.00     0.014 A 
HETATM   20  C23 UNL     1       0.539   2.378  -7.872  1.00  0.00     0.007 A 
HETATM   21  C22 UNL     1       1.082   1.195  -7.371  1.00  0.00    -0.061 A 
HETATM   22  C25 UNL     1       1.588   1.126  -5.960  1.00  0.00     0.048 C 
ENDBRANCH  10  12
ENDBRANCH   7  10
BRANCH   9  23
HETATM   23  C9  UNL     1       1.954   6.341 -13.011  1.00  0.00     0.128 C 
BRANCH  23  24
HETATM   24  C10 UNL     1       1.211   7.564 -13.547  1.00  0.00     0.020 C 
BRANCH  24  25
HETATM   25  C11 UNL     1       2.150   8.474 -14.339  1.00  0.00     0.001 C 
BRANCH  25  26
HETATM   26  C12 UNL     1       2.698   9.643 -13.520  1.00  0.00    -0.004 C 
HETATM   27  C13 UNL     1       1.974  10.956 -13.774  1.00  0.00     0.005 C 
ENDBRANCH  25  26
ENDBRANCH  24  25
ENDBRANCH  23  24
ENDBRANCH   9  23
TORSDOF 6
ENDMDL
MODEL 2
REMARK VINA RESULT:      -8.6      1.357      2.679
REMARK  6 active torsions:
REMARK  status: ('A' for Active; 'I' for Inactive)
REMARK    1  A    between atoms: C7_7  and  C14_15 
REMARK    2  A    between atoms: N1_9  and  C9_10 
REMARK    3  A    between atoms: C9_10  and  C10_11 
REMARK    4  A    between atoms: C10_11  and  C11_12 
REMARK    5  A    between atoms: C11_12  and  C12_13 
REMARK    6  A    between atoms: C14_15  and  C15_16 
ROOT
HETATM    1  C1  UNL     1      -0.119   2.445 -14.493  1.00  0.00     0.015 A 
HETATM    2  C2  UNL     1       0.353   3.563 -13.768  1.00  0.00     0.006 A 
HETATM    3  C3  UNL     1       1.167   4.483 -14.446  1.00  0.00     0.045 A 
HETATM    4  C4  UNL     1       1.499   4.337 -15.803  1.00  0.00     0.030 A 
HETATM    5  C5  UNL     1       1.003   3.228 -16.492  1.00  0.00     0.002 A 
HETATM    6  C6  UNL     1       0.207   2.290 -15.846  1.00  0.00     0.001 A 
HETATM    7  C7  UNL     1       0.217   4.023 -12.413  1.00  0.00     0.043 A 
HETATM    8  C8  UNL     1       0.977   5.177 -12.313  1.00  0.00     0.107 A 
HETATM    9  N1  UNL     1       1.530   5.449 -13.532  1.00  0.00    -0.355 N 
ENDROOT
BRANCH   7  10
HETATM   10  C14 UNL     1      -0.518   3.472 -11.275  1.00  0.00     0.195 C 
HETATM   11  O1  UNL     1      -1.521   4.010 -10.809  1.00  0.00    -0.287 OA
BRANCH  10  12
HETATM   12  C15 UNL     1      -0.070   2.196 -10.682  1.00  0.00     0.026 A 
HETATM   13  C16 UNL     1       1.141   2.202  -9.974  1.00  0.00     0.016 A 
HETATM   14  C17 UNL     1       1.611   1.028  -9.400  1.00  0.00     0.002 A 
HETATM   15  C18 UNL     1       0.875  -0.150  -9.536  1.00  0.00     0.012 A 
HETATM   16  C19 UNL     1      -0.335  -0.176 -10.250  1.00  0.00    -0.025 A 
HETATM   17  C20 UNL     1      -0.827   1.008 -10.847  1.00  0.00    -0.012 A 
HETATM   18  C21 UNL     1      -1.060  -1.374 -10.374  1.00  0.00     0.019 A 
HETATM   19  C24 UNL     1      -2.046   0.935 -11.559  1.00  0.00     0.014 A 
HETATM   20  C23 UNL     1      -2.754  -0.263 -11.674  1.00  0.00     0.007 A 
HETATM   21  C22 UNL     1      -2.274  -1.425 -11.070  1.00  0.00    -0.061 A 
HETATM   22  C25 UNL     1      -3.012  -2.722 -11.220  1.00  0.00     0.048 C 
ENDBRANCH  10  12
ENDBRANCH   7  10
BRANCH   9  23
HETATM   23  C9  UNL     1       2.377   6.603 -13.802  1.00  0.00     0.128 C 
BRANCH  23  24
HETATM   24  C10 UNL     1       1.566   7.889 -13.953  1.00  0.00     0.020 C 
BRANCH  24  25
HETATM   25  C11 UNL     1       2.398   8.988 -14.615  1.00  0.00     0.001 C 
BRANCH  25  26
HETATM   26  C12 UNL     1       2.283  10.342 -13.913  1.00  0.00    -0.004 C 
HETATM   27  C13 UNL     1       2.596  10.285 -12.426  1.00  0.00     0.005 C 
ENDBRANCH  25  26
ENDBRANCH  24  25
ENDBRANCH  23  24
ENDBRANCH   9  23
TORSDOF 6
ENDMDL
