MODEL 1
REMARK VINA RESULT:      -8.5      0.000      0.000
REMARK  8 active torsions:
REMARK  status: ('A' for Active; 'I' for Inactive)
REMARK    1  A    between atoms: C1_2  and  O2_3 
REMARK    2  A    between atoms: C1_2  and  C2_4 
REMARK    3  A    between atoms: C7_10  and  O3_11 
REMARK    4  A    between atoms: O3_11  and  C8_12 
REMARK    5  A    between atoms: N2_14  and  C11_16 
REMARK    6  A    between atoms: C11_16  and  C12_17 
REMARK    7  A    between atoms: C15_20  and  C18_23 
REMARK    8  A    between atoms: C19_24  and  C24_29 
ROOT
HETATM    1  C12 UNL     1      -2.051   0.533 -11.221  1.00  0.00    -0.040 A 
HETATM    2  C13 UNL     1      -2.057   1.935 -11.180  1.00  0.00     0.010 A 
HETATM    3  C14 UNL     1      -1.398   2.678 -12.163  1.00  0.00     0.013 A 
HETATM    4  C15 UNL     1      -0.695   2.041 -13.196  1.00  0.00    -0.025 A 
HETATM    5  C16 UNL     1      -0.680   0.641 -13.227  1.00  0.00     0.013 A 
HETATM    6  C17 UNL     1      -1.338  -0.104 -12.245  1.00  0.00     0.010 A 
ENDROOT
BRANCH   1   7
HETATM    7  C11 UNL     1      -2.740  -0.298 -10.157  1.00  0.00     0.171 C 
BRANCH   7   8
HETATM    8  N2  UNL     1      -1.911  -1.385  -9.658  1.00  0.00    -0.304 N 
HETATM    9  C7  UNL     1      -0.899  -1.196  -8.746  1.00  0.00     0.249 A 
HETATM   10  N1  UNL     1      -0.375  -2.328  -8.352  1.00  0.00    -0.206 NA
HETATM   11  C6  UNL     1      -1.050  -3.295  -9.045  1.00  0.00     0.089 A 
HETATM   12  C5  UNL     1      -0.880  -4.685  -8.966  1.00  0.00     0.034 A 
HETATM   13  C10 UNL     1      -2.006  -2.744  -9.911  1.00  0.00     0.084 A 
HETATM   14  C4  UNL     1      -1.672  -5.518  -9.754  1.00  0.00     0.003 A 
HETATM   15  C3  UNL     1      -2.610  -4.970 -10.623  1.00  0.00     0.021 A 
HETATM   16  C2  UNL     1      -2.798  -3.576 -10.730  1.00  0.00     0.067 A 
BRANCH   9  17
HETATM   17  O3  UNL     1      -0.557   0.012  -8.303  1.00  0.00    -0.321 OA
BRANCH  17  18
HETATM   18  C8  UNL     1       0.841   0.301  -8.306  1.00  0.00     0.174 C 
HETATM   19  C9  UNL     1       1.311   0.673  -9.702  1.00  0.00     0.034 C 
ENDBRANCH  17  18
ENDBRANCH   9  17
BRANCH  16  20
HETATM   20  C1  UNL     1      -3.750  -3.067 -11.732  1.00  0.00     0.178 C 
HETATM   21  O1  UNL     1      -4.900  -2.726 -11.539  1.00  0.00    -0.646 OA
BRANCH  20  22
HETATM   22  O2  UNL     1      -3.192  -2.997 -12.955  1.00  0.00    -0.773 OA
HETATM   23  H1  UNL     1      -2.519  -3.709 -12.956  1.00  0.00     0.167 HD
ENDBRANCH  20  22
ENDBRANCH  16  20
ENDBRANCH   7   8
ENDBRANCH   1   7
BRANCH   4  24
HETATM   24  C18 UNL     1       0.016   2.828 -14.216  1.00  0.00    -0.012 A 
HETATM   25  C19 UNL     1       1.033   3.769 -13.913  1.00  0.00     0.023 A 
HETATM   26  C20 UNL     1       1.682   4.427 -14.975  1.00  0.00     0.016 A 
HETATM   27  C21 UNL     1       1.334   4.190 -16.307  1.00  0.00     0.001 A 
HETATM   28  C22 UNL     1       0.327   3.280 -16.601  1.00  0.00     0.001 A 
HETATM   29  C23 UNL     1      -0.323   2.607 -15.568  1.00  0.00     0.013 A 
BRANCH  25  30
HETATM   30  C24 UNL     1       1.465   4.115 -12.553  1.00  0.00     0.168 A 
HETATM   31  N3  UNL     1       2.256   3.405 -11.765  1.00  0.00    -0.142 NA
HETATM   32  N4  UNL     1       2.415   4.122 -10.608  1.00  0.00     0.018 NA
HETATM   33  N5  UNL     1       1.754   5.267 -10.666  1.00  0.00    -0.005 NA
HETATM   34  N6  UNL     1       1.172   5.268 -11.872  1.00  0.00    -0.268 N 
HETATM   35  H20 UNL     1       0.610   6.062 -12.152  1.00  0.00     0.185 HD
ENDBRANCH  25  30
ENDBRANCH   4  24
TORSDOF 8
ENDMDL
MODEL 2
REMARK VINA RESULT:      -8.4      2.790      3.924
REMARK  8 active torsions:
REMARK  status: ('A' for Active; 'I' for Inactive)
REMARK    1  A    between atoms: C1_2  and  O2_3 
REMARK    2  A    between atoms: C1_2  and  C2_4 
REMARK    3  A    between atoms: C7_10  and  O3_11 
REMARK    4  A    between atoms: O3_11  and  C8_12 
REMARK    5  A    between atoms: N2_14  and  C11_16 
REMARK    6  A    between atoms: C11_16  and  C12_17 
REMARK    7  A    between atoms: C15_20  and  C18_23 
REMARK    8  A    between atoms: C19_24  and  C24_29 
ROOT
HETATM    1  C12 UNL     1       0.264   1.780 -10.020  1.00  0.00    -0.040 A 
HETATM    2  C13 UNL     1      -0.708   2.720 -10.392  1.00  0.00     0.010 A 
HETATM    3  C14 UNL     1      -0.385   3.777 -11.247  1.00  0.00     0.013 A 
HETATM    4  C15 UNL     1       0.921   3.939 -11.729  1.00  0.00    -0.025 A 
HETATM    5  C16 UNL     1       1.894   3.007 -11.345  1.00  0.00     0.013 A 
HETATM    6  C17 UNL     1       1.573   1.948 -10.491  1.00  0.00     0.010 A 
ENDROOT
BRANCH   1   7
HETATM    7  C11 UNL     1      -0.053   0.635  -9.079  1.00  0.00     0.171 C 
BRANCH   7   8
HETATM    8  N2  UNL     1      -1.448   0.225  -9.130  1.00  0.00    -0.304 N 
HETATM    9  C7  UNL     1      -2.385   0.643  -8.213  1.00  0.00     0.249 A 
HETATM   10  N1  UNL     1      -3.591   0.248  -8.529  1.00  0.00    -0.206 NA
HETATM   11  C6  UNL     1      -3.441  -0.473  -9.681  1.00  0.00     0.089 A 
HETATM   12  C5  UNL     1      -4.443  -1.096 -10.440  1.00  0.00     0.034 A 
HETATM   13  C10 UNL     1      -2.098  -0.547 -10.079  1.00  0.00     0.084 A 
HETATM   14  C4  UNL     1      -4.095  -1.788 -11.599  1.00  0.00     0.003 A 
HETATM   15  C3  UNL     1      -2.760  -1.872 -11.985  1.00  0.00     0.021 A 
HETATM   16  C2  UNL     1      -1.731  -1.263 -11.237  1.00  0.00     0.067 A 
BRANCH   9  17
HETATM   17  O3  UNL     1      -2.066   1.402  -7.167  1.00  0.00    -0.321 OA
BRANCH  17  18
HETATM   18  C8  UNL     1      -3.000   2.432  -6.841  1.00  0.00     0.174 C 
HETATM   19  C9  UNL     1      -2.500   3.783  -7.325  1.00  0.00     0.034 C 
ENDBRANCH  17  18
ENDBRANCH   9  17
BRANCH  16  20
HETATM   20  C1  UNL     1      -0.335  -1.466 -11.663  1.00  0.00     0.178 C 
HETATM   21  O1  UNL     1       0.584  -1.874 -10.980  1.00  0.00    -0.646 OA
BRANCH  20  22
HETATM   22  O2  UNL     1      -0.161  -1.152 -12.959  1.00  0.00    -0.773 OA
HETATM   23  H1  UNL     1       0.493  -1.807 -13.283  1.00  0.00     0.167 HD
ENDBRANCH  20  22
ENDBRANCH  16  20
ENDBRANCH   7   8
ENDBRANCH   1   7
BRANCH   4  24
HETATM   24  C18 UNL     1       1.261   5.068 -12.610  1.00  0.00    -0.012 A 
HETATM   25  C19 UNL     1       1.098   5.041 -14.018  1.00  0.00     0.023 A 
HETATM   26  C20 UNL     1       1.408   6.201 -14.755  1.00  0.00     0.016 A 
HETATM   27  C21 UNL     1       1.888   7.357 -14.137  1.00  0.00     0.001 A 
HETATM   28  C22 UNL     1       2.063   7.376 -12.759  1.00  0.00     0.001 A 
HETATM   29  C23 UNL     1       1.752   6.246 -12.006  1.00  0.00     0.013 A 
BRANCH  25  30
HETATM   30  C24 UNL     1       0.624   3.878 -14.777  1.00  0.00     0.168 A 
HETATM   31  N3  UNL     1      -0.625   3.455 -14.887  1.00  0.00    -0.142 NA
HETATM   32  N4  UNL     1      -0.605   2.361 -15.713  1.00  0.00     0.018 NA
HETATM   33  N5  UNL     1       0.625   2.105 -16.130  1.00  0.00    -0.005 NA
HETATM   34  N6  UNL     1       1.386   3.047 -15.557  1.00  0.00    -0.268 N 
HETATM   35  H20 UNL     1       2.381   3.060 -15.740  1.00  0.00     0.185 HD
ENDBRANCH  25  30
ENDBRANCH   4  24
TORSDOF 8
ENDMDL
