MODEL 1
REMARK VINA RESULT:      -7.9      0.000      0.000
REMARK  10 active torsions:
REMARK  status: ('A' for Active; 'I' for Inactive)
REMARK    1  A    between atoms: C1_1  and  O2_20 
REMARK    2  A    between atoms: C7_8  and  C10_11 
REMARK    3  A    between atoms: C10_11  and  C11_12 
REMARK    4  A    between atoms: C11_12  and  C12_13 
REMARK    5  A    between atoms: C13_14  and  C14_15 
REMARK    6  A    between atoms: C14_15  and  C20_22 
REMARK    7  A    between atoms: C20_22  and  C21_23 
REMARK    8  A    between atoms: C22_24  and  C23_25 
REMARK    9  A    between atoms: C23_25  and  C25_27 
REMARK   10  A    between atoms: C25_27  and  C26_28 
ROOT
HETATM    1  C1  UNL     1       0.234   4.985  -7.584  1.00  0.00     0.078 A 
HETATM    2  C2  UNL     1      -1.027   4.954  -8.207  1.00  0.00    -0.020 A 
HETATM    3  C3  UNL     1      -1.179   5.598  -9.456  1.00  0.00    -0.019 A 
HETATM    4  C4  UNL     1      -0.052   6.176 -10.083  1.00  0.00     0.083 A 
HETATM    5  C5  UNL     1       1.205   6.186  -9.457  1.00  0.00    -0.015 A 
HETATM    6  C6  UNL     1       1.359   5.558  -8.202  1.00  0.00    -0.019 A 
HETATM    7  O1  UNL     1      -0.278   6.738 -11.314  1.00  0.00    -0.339 OA
HETATM    8  C7  UNL     1       0.856   7.073 -12.125  1.00  0.00     0.065 C 
HETATM    9  C8  UNL     1       1.940   7.747 -11.272  1.00  0.00     0.043 C 
HETATM   10  C9  UNL     1       2.381   6.846 -10.131  1.00  0.00     0.045 C 
HETATM   11  C15 UNL     1       0.347   8.110 -13.141  1.00  0.00     0.046 C 
HETATM   12  C16 UNL     1      -2.522   5.636 -10.147  1.00  0.00     0.052 C 
HETATM   13  C17 UNL     1       2.695   5.554  -7.500  1.00  0.00     0.052 C 
HETATM   14  C18 UNL     1      -2.194   4.272  -7.539  1.00  0.00     0.052 C 
ENDROOT
BRANCH   8  15
HETATM   15  C10 UNL     1       1.388   5.815 -12.860  1.00  0.00     0.042 C 
BRANCH  15  16
HETATM   16  C11 UNL     1       2.014   6.091 -14.232  1.00  0.00     0.030 C 
BRANCH  16  17
HETATM   17  C12 UNL     1       1.365   5.233 -15.287  1.00  0.00    -0.024 C 
HETATM   18  C13 UNL     1       1.748   4.011 -15.709  1.00  0.00    -0.087 C 
HETATM   19  C19 UNL     1       2.908   3.239 -15.138  1.00  0.00     0.043 C 
BRANCH  18  20
HETATM   20  C14 UNL     1       0.961   3.292 -16.792  1.00  0.00     0.037 C 
BRANCH  20  21
HETATM   21  C20 UNL     1      -0.270   2.530 -16.279  1.00  0.00     0.031 C 
BRANCH  21  22
HETATM   22  C21 UNL     1      -0.722   2.990 -14.916  1.00  0.00    -0.024 C 
HETATM   23  C22 UNL     1      -0.888   2.256 -13.797  1.00  0.00    -0.087 C 
HETATM   24  C24 UNL     1      -0.691   0.761 -13.736  1.00  0.00     0.043 C 
BRANCH  23  25
HETATM   25  C23 UNL     1      -1.296   2.844 -12.449  1.00  0.00     0.037 C 
BRANCH  25  26
HETATM   26  C25 UNL     1      -0.564   2.343 -11.195  1.00  0.00     0.031 C 
BRANCH  26  27
HETATM   27  C26 UNL     1       0.874   2.794 -11.186  1.00  0.00    -0.024 C 
HETATM   28  C27 UNL     1       1.801   2.604 -10.227  1.00  0.00    -0.091 C 
HETATM   29  C28 UNL     1       3.203   3.125 -10.403  1.00  0.00     0.042 C 
HETATM   30  C29 UNL     1       1.573   1.892  -8.920  1.00  0.00     0.042 C 
ENDBRANCH  26  27
ENDBRANCH  25  26
ENDBRANCH  23  25
ENDBRANCH  21  22
ENDBRANCH  20  21
ENDBRANCH  18  20
ENDBRANCH  16  17
ENDBRANCH  15  16
ENDBRANCH   8  15
BRANCH   1  31
HETATM   31  O2  UNL     1       0.417   4.460  -6.331  1.00  0.00    -0.360 OA
HETATM   32  H24 UNL     1      -0.437   4.404  -5.878  1.00  0.00     0.217 HD
ENDBRANCH   1  31
TORSDOF 10
ENDMDL
MODEL 2
REMARK VINA RESULT:      -7.8      1.634      4.859
REMARK  10 active torsions:
REMARK  status: ('A' for Active; 'I' for Inactive)
REMARK    1  A    between atoms: C1_1  and  O2_20 
REMARK    2  A    between atoms: C7_8  and  C10_11 
REMARK    3  A    between atoms: C10_11  and  C11_12 
REMARK    4  A    between atoms: C11_12  and  C12_13 
REMARK    5  A    between atoms: C13_14  and  C14_15 
REMARK    6  A    between atoms: C14_15  and  C20_22 
REMARK    7  A    between atoms: C20_22  and  C21_23 
REMARK    8  A    between atoms: C22_24  and  C23_25 
REMARK    9  A    between atoms: C23_25  and  C25_27 
REMARK   10  A    between atoms: C25_27  and  C26_28 
ROOT
HETATM    1  C1  UNL     1       1.152   4.483  -7.540  1.00  0.00     0.078 A 
HETATM    2  C2  UNL     1       2.197   4.354  -8.472  1.00  0.00    -0.020 A 
HETATM    3  C3  UNL     1       2.127   3.313  -9.425  1.00  0.00    -0.019 A 
HETATM    4  C4  UNL     1       0.979   2.490  -9.475  1.00  0.00     0.083 A 
HETATM    5  C5  UNL     1      -0.065   2.640  -8.548  1.00  0.00    -0.015 A 
HETATM    6  C6  UNL     1       0.007   3.668  -7.583  1.00  0.00    -0.019 A 
HETATM    7  O1  UNL     1       0.972   1.536 -10.460  1.00  0.00    -0.339 OA
HETATM    8  C7  UNL     1      -0.266   0.873 -10.753  1.00  0.00     0.065 C 
HETATM    9  C8  UNL     1      -0.988   0.494  -9.452  1.00  0.00     0.043 C 
HETATM   10  C9  UNL     1      -1.259   1.721  -8.597  1.00  0.00     0.045 C 
HETATM   11  C15 UNL     1       0.122  -0.432 -11.470  1.00  0.00     0.046 C 
HETATM   12  C16 UNL     1       3.244   3.099 -10.420  1.00  0.00     0.052 C 
HETATM   13  C17 UNL     1      -1.095   3.854  -6.569  1.00  0.00     0.052 C 
HETATM   14  C18 UNL     1       3.379   5.290  -8.431  1.00  0.00     0.052 C 
ENDROOT
BRANCH   8  15
HETATM   15  C10 UNL     1      -1.147   1.753 -11.677  1.00  0.00     0.042 C 
BRANCH  15  16
HETATM   16  C11 UNL     1      -1.022   1.438 -13.173  1.00  0.00     0.030 C 
BRANCH  16  17
HETATM   17  C12 UNL     1      -0.849   2.709 -13.964  1.00  0.00    -0.024 C 
HETATM   18  C13 UNL     1      -0.131   2.889 -15.091  1.00  0.00    -0.087 C 
HETATM   19  C19 UNL     1       0.609   1.794 -15.813  1.00  0.00     0.043 C 
BRANCH  18  20
HETATM   20  C14 UNL     1      -0.075   4.255 -15.754  1.00  0.00     0.037 C 
BRANCH  20  21
HETATM   21  C20 UNL     1       1.278   4.968 -15.622  1.00  0.00     0.031 C 
BRANCH  21  22
HETATM   22  C21 UNL     1       1.718   5.136 -14.189  1.00  0.00    -0.024 C 
HETATM   23  C22 UNL     1       1.663   6.243 -13.421  1.00  0.00    -0.087 C 
HETATM   24  C24 UNL     1       1.178   7.584 -13.914  1.00  0.00     0.043 C 
BRANCH  23  25
HETATM   25  C23 UNL     1       2.085   6.280 -11.955  1.00  0.00     0.037 C 
BRANCH  25  26
HETATM   26  C25 UNL     1       1.056   6.764 -10.922  1.00  0.00     0.031 C 
BRANCH  26  27
HETATM   27  C26 UNL     1      -0.166   5.881 -10.914  1.00  0.00    -0.024 C 
HETATM   28  C27 UNL     1      -1.219   5.924 -10.077  1.00  0.00    -0.091 C 
HETATM   29  C28 UNL     1      -2.362   4.955 -10.233  1.00  0.00     0.042 C 
HETATM   30  C29 UNL     1      -1.386   6.885  -8.930  1.00  0.00     0.042 C 
ENDBRANCH  26  27
ENDBRANCH  25  26
ENDBRANCH  23  25
ENDBRANCH  21  22
ENDBRANCH  20  21
ENDBRANCH  18  20
ENDBRANCH  16  17
ENDBRANCH  15  16
ENDBRANCH   8  15
BRANCH   1  31
HETATM   31  O2  UNL     1       1.212   5.412  -6.534  1.00  0.00    -0.360 OA
HETATM   32  H24 UNL     1       0.316   5.618  -6.231  1.00  0.00     0.217 HD
ENDBRANCH   1  31
TORSDOF 10
ENDMDL
