MODEL 1
REMARK VINA RESULT:      -9.2      0.000      0.000
REMARK  5 active torsions:
REMARK  status: ('A' for Active; 'I' for Inactive)
REMARK    1  A    between atoms: C13_13  and  O2_28 
REMARK    2  A    between atoms: C14_14  and  C15_15 
REMARK    3  A    between atoms: C16_16  and  C19_19 
REMARK    4  A    between atoms: C19_19  and  C20_20 
REMARK    5  A    between atoms: C20_20  and  N1_21 
ROOT
HETATM    1  C1  UNL     1      -3.255  -0.798  -9.774  1.00  0.00    -0.024 C 
HETATM    2  C2  UNL     1      -2.273   0.167  -9.233  1.00  0.00     0.035 C 
HETATM    3  C3  UNL     1      -1.881   1.126 -10.351  1.00  0.00     0.032 C 
HETATM    4  C4  UNL     1      -1.296   0.345 -11.488  1.00  0.00     0.035 C 
HETATM    5  C5  UNL     1      -2.264  -0.647 -12.042  1.00  0.00     0.043 C 
HETATM    6  C6  UNL     1      -3.243  -1.155 -11.034  1.00  0.00    -0.087 C 
HETATM    7  C7  UNL     1      -4.261  -2.128 -11.515  1.00  0.00     0.043 C 
HETATM    8  C8  UNL     1      -0.698   1.239 -12.513  1.00  0.00     0.013 A 
HETATM    9  C9  UNL     1      -0.239   2.487 -12.148  1.00  0.00     0.079 A 
HETATM   10  C10 UNL     1       0.334   3.345 -13.118  1.00  0.00     0.045 A 
HETATM   11  C11 UNL     1       0.442   2.958 -14.412  1.00  0.00    -0.045 A 
HETATM   12  C12 UNL     1      -0.017   1.709 -14.771  1.00  0.00     0.045 A 
HETATM   13  C13 UNL     1      -0.582   0.863 -13.829  1.00  0.00     0.075 A 
HETATM   14  C14 UNL     1       1.056   3.850 -15.493  1.00  0.00    -0.020 A 
HETATM   15  C17 UNL     1       1.750   2.878 -16.408  1.00  0.00     0.020 C 
HETATM   16  C18 UNL     1      -0.161   4.382 -16.202  1.00  0.00     0.020 C 
HETATM   17  C24 UNL     1      -0.926   2.136  -9.810  1.00  0.00     0.065 C 
HETATM   18  O1  UNL     1      -0.347   2.883 -10.842  1.00  0.00    -0.340 OA
HETATM   19  C25 UNL     1       0.244   1.493  -9.055  1.00  0.00     0.046 C 
HETATM   20  C26 UNL     1      -1.692   3.041  -8.864  1.00  0.00     0.046 C 
HETATM   21 CL1  UNL     1       0.204   3.155 -14.317  1.00  0.00    -0.145 Cl
HETATM   22  H37 UNL     1      -0.390   2.519 -13.250  1.00  0.00     0.145 HD
ENDROOT
BRANCH  14  23
HETATM   23  C15 UNL     1       1.898   4.870 -14.899  1.00  0.00     0.013 C 
HETATM   24  C16 UNL     1       1.628   6.254 -14.623  1.00  0.00     0.003 C 
BRANCH  24  25
HETATM   25  C19 UNL     1       0.659   6.790 -13.681  1.00  0.00     0.020 C 
BRANCH  25  26
HETATM   26  C20 UNL     1       0.901   7.470 -12.420  1.00  0.00     0.129 C 
BRANCH  26  27
HETATM   27  N1  UNL     1       1.234   6.588 -11.318  1.00  0.00    -0.350 N 
HETATM   28  C21 UNL     1       2.312   5.845 -11.086  1.00  0.00     0.111 A 
HETATM   29  C22 UNL     1       2.180   5.142  -9.894  1.00  0.00     0.135 A 
HETATM   30  N2  UNL     1       0.988   5.474  -9.400  1.00  0.00    -0.255 NA
HETATM   31  C23 UNL     1       0.414   6.338 -10.242  1.00  0.00     0.209 A 
ENDBRANCH  26  27
ENDBRANCH  25  26
ENDBRANCH  24  25
ENDBRANCH  14  23
BRANCH  13  32
HETATM   32  O2  UNL     1      -1.028  -0.369 -14.217  1.00  0.00    -0.360 OA
HETATM   33  H30 UNL     1      -1.183  -0.553 -15.199  1.00  0.00     0.217 HD
ENDBRANCH  13  32
TORSDOF 5
ENDMDL
MODEL 2
REMARK VINA RESULT:      -8.1      2.076      6.248
REMARK  5 active torsions:
REMARK  status: ('A' for Active; 'I' for Inactive)
REMARK    1  A    between atoms: C13_13  and  O2_28 
REMARK    2  A    between atoms: C14_14  and  C15_15 
REMARK    3  A    between atoms: C16_16  and  C19_19 
REMARK    4  A    between atoms: C19_19  and  C20_20 
REMARK    5  A    between atoms: C20_20  and  N1_21 
ROOT
HETATM    1  C1  UNL     1       1.737   4.955 -15.045  1.00  0.00    -0.024 C 
HETATM    2  C2  UNL     1       1.487   5.422 -13.664  1.00  0.00     0.035 C 
HETATM    3  C3  UNL     1       1.346   4.200 -12.765  1.00  0.00     0.032 C 
HETATM    4  C4  UNL     1       0.213   3.352 -13.258  1.00  0.00     0.035 C 
HETATM    5  C5  UNL     1       0.436   2.880 -14.656  1.00  0.00     0.043 C 
HETATM    6  C6  UNL     1       1.264   3.813 -15.479  1.00  0.00    -0.087 C 
HETATM    7  C7  UNL     1       1.556   3.400 -16.878  1.00  0.00     0.043 C 
HETATM    8  C8  UNL     1      -0.112   2.265 -12.300  1.00  0.00     0.013 A 
HETATM    9  C9  UNL     1       0.174   2.425 -10.960  1.00  0.00     0.079 A 
HETATM   10  C10 UNL     1      -0.134   1.394 -10.040  1.00  0.00     0.045 A 
HETATM   11  C11 UNL     1      -0.712   0.240 -10.455  1.00  0.00    -0.045 A 
HETATM   12  C12 UNL     1      -0.997   0.086 -11.794  1.00  0.00     0.045 A 
HETATM   13  C13 UNL     1      -0.697   1.089 -12.703  1.00  0.00     0.075 A 
HETATM   14  C14 UNL     1      -1.065  -0.899  -9.496  1.00  0.00    -0.020 A 
HETATM   15  C17 UNL     1      -2.328  -1.476 -10.075  1.00  0.00     0.020 C 
HETATM   16  C18 UNL     1       0.055  -1.877  -9.732  1.00  0.00     0.020 C 
HETATM   17  C24 UNL     1       1.138   4.654 -11.359  1.00  0.00     0.065 C 
HETATM   18  O1  UNL     1       0.759   3.588 -10.537  1.00  0.00    -0.340 OA
HETATM   19  C25 UNL     1       0.018   5.694 -11.236  1.00  0.00     0.046 C 
HETATM   20  C26 UNL     1       2.439   5.265 -10.871  1.00  0.00     0.046 C 
HETATM   21 CL1  UNL     1      -0.394   0.256 -10.396  1.00  0.00    -0.145 Cl
HETATM   22  H37 UNL     1       0.059   1.330 -11.128  1.00  0.00     0.145 HD
ENDROOT
BRANCH  14  23
HETATM   23  C15 UNL     1      -1.158  -0.412  -8.134  1.00  0.00     0.013 C 
HETATM   24  C16 UNL     1      -0.242  -0.542  -7.034  1.00  0.00     0.003 C 
BRANCH  24  25
HETATM   25  C19 UNL     1       1.094   0.022  -6.931  1.00  0.00     0.020 C 
BRANCH  25  26
HETATM   26  C20 UNL     1       1.556   1.108  -6.084  1.00  0.00     0.129 C 
BRANCH  26  27
HETATM   27  N1  UNL     1       1.202   2.432  -6.560  1.00  0.00    -0.350 N 
HETATM   28  C21 UNL     1       0.027   3.050  -6.636  1.00  0.00     0.111 A 
HETATM   29  C22 UNL     1       0.172   4.320  -7.181  1.00  0.00     0.135 A 
HETATM   30  N2  UNL     1       1.471   4.465  -7.439  1.00  0.00    -0.255 NA
HETATM   31  C23 UNL     1       2.096   3.343  -7.071  1.00  0.00     0.209 A 
ENDBRANCH  26  27
ENDBRANCH  25  26
ENDBRANCH  24  25
ENDBRANCH  14  23
BRANCH  13  32
HETATM   32  O2  UNL     1      -0.991   0.905 -14.025  1.00  0.00    -0.360 OA
HETATM   33  H30 UNL     1      -0.695   1.598 -14.700  1.00  0.00     0.217 HD
ENDBRANCH  13  32
TORSDOF 5
ENDMDL
