MODEL 1
REMARK VINA RESULT:      -9.6      0.000      0.000
REMARK  0 active torsions:
REMARK  status: ('A' for Active; 'I' for Inactive)
ROOT
HETATM    1  C1  UNL     1       2.525   6.254 -13.221  1.00  0.00     0.071 A 
HETATM    2  C2  UNL     1       2.015   7.543 -13.890  1.00  0.00     0.276 A 
HETATM    3  N1  UNL     1       3.023   8.623 -13.947  1.00  0.00     0.080 N 
HETATM    4  C3  UNL     1       2.540   9.707 -14.808  1.00  0.00     0.309 C 
HETATM    5  C4  UNL     1       3.333   9.151 -12.617  1.00  0.00     0.309 A 
HETATM    6  C5  UNL     1       1.517   5.146 -13.292  1.00  0.00    -0.029 A 
HETATM    7  C6  UNL     1       1.302   4.253 -14.392  1.00  0.00    -0.002 A 
HETATM    8  C7  UNL     1       0.271   3.385 -14.031  1.00  0.00     0.042 A 
HETATM    9  N2  UNL     1      -0.123   3.733 -12.761  1.00  0.00    -0.365 N 
HETATM   10  C8  UNL     1       0.617   4.791 -12.307  1.00  0.00     0.096 A 
HETATM   11  C9  UNL     1      -0.201   2.376 -14.880  1.00  0.00     0.030 A 
HETATM   12  C10 UNL     1       0.399   2.252 -16.136  1.00  0.00     0.002 A 
HETATM   13  C11 UNL     1       1.430   3.103 -16.526  1.00  0.00     0.001 A 
HETATM   14  C12 UNL     1       1.891   4.105 -15.665  1.00  0.00     0.014 A 
HETATM   15  C13 UNL     1       1.379   6.372 -13.345  1.00  0.00     0.088 A 
HETATM   16  C14 UNL     1       1.860   5.498 -14.239  1.00  0.00     0.088 A 
HETATM   17  C15 UNL     1       1.231   4.181 -14.353  1.00  0.00     0.165 A 
HETATM   18  O1  UNL     1       1.849   3.452 -15.293  1.00  0.00    -0.773 OA
HETATM   19  O2  UNL     1       0.288   3.755 -13.714  1.00  0.00    -0.647 OA
HETATM   20  C16 UNL     1       1.939   7.714 -13.159  1.00  0.00     0.165 A 
HETATM   21  O3  UNL     1       2.978   7.983 -13.963  1.00  0.00    -0.773 OA
HETATM   22  O4  UNL     1       1.523   8.528 -12.356  1.00  0.00    -0.647 OA
HETATM   23  H11 UNL     1      -0.856   3.268 -12.243  1.00  0.00     0.165 HD
HETATM   24  H19 UNL     1       1.362   2.601 -15.294  1.00  0.00     0.167 HD
HETATM   25  H20 UNL     1       3.232   8.897 -13.717  1.00  0.00     0.167 HD
ENDROOT
TORSDOF 0
ENDMDL
MODEL 2
REMARK VINA RESULT:      -9.1      2.905      5.965
REMARK  0 active torsions:
REMARK  status: ('A' for Active; 'I' for Inactive)
ROOT
HETATM    1  C1  UNL     1      -1.452   2.280 -12.118  1.00  0.00     0.071 A 
HETATM    2  C2  UNL     1      -1.168   0.771 -12.016  1.00  0.00     0.276 A 
HETATM    3  N1  UNL     1      -2.340  -0.029 -11.602  1.00  0.00     0.080 N 
HETATM    4  C3  UNL     1      -2.050  -1.456 -11.771  1.00  0.00     0.309 C 
HETATM    5  C4  UNL     1      -2.717   0.236 -10.213  1.00  0.00     0.309 A 
HETATM    6  C5  UNL     1      -0.276   3.040 -12.657  1.00  0.00    -0.029 A 
HETATM    7  C6  UNL     1       0.070   3.215 -14.036  1.00  0.00    -0.002 A 
HETATM    8  C7  UNL     1       1.234   3.984 -14.082  1.00  0.00     0.042 A 
HETATM    9  N2  UNL     1       1.580   4.269 -12.782  1.00  0.00    -0.365 N 
HETATM   10  C8  UNL     1       0.681   3.705 -11.917  1.00  0.00     0.096 A 
HETATM   11  C9  UNL     1       1.856   4.346 -15.282  1.00  0.00     0.030 A 
HETATM   12  C10 UNL     1       1.271   3.908 -16.474  1.00  0.00     0.002 A 
HETATM   13  C11 UNL     1       0.109   3.139 -16.463  1.00  0.00     0.001 A 
HETATM   14  C12 UNL     1      -0.500   2.787 -15.254  1.00  0.00     0.014 A 
HETATM   15  C13 UNL     1      -0.341   1.949 -12.082  1.00  0.00     0.088 A 
HETATM   16  C14 UNL     1      -0.683   2.314 -13.325  1.00  0.00     0.088 A 
HETATM   17  C15 UNL     1       0.153   3.286 -14.033  1.00  0.00     0.165 A 
HETATM   18  O1  UNL     1      -0.347   3.524 -15.254  1.00  0.00    -0.773 OA
HETATM   19  O2  UNL     1       1.160   3.830 -13.625  1.00  0.00    -0.647 OA
HETATM   20  C16 UNL     1      -1.112   0.982 -11.294  1.00  0.00     0.165 A 
HETATM   21  O3  UNL     1      -2.191   0.501 -11.931  1.00  0.00    -0.773 OA
HETATM   22  O4  UNL     1      -0.827   0.632 -10.165  1.00  0.00    -0.647 OA
HETATM   23  H11 UNL     1       2.384   4.817 -12.512  1.00  0.00     0.165 HD
HETATM   24  H19 UNL     1       0.273   4.177 -15.644  1.00  0.00     0.167 HD
HETATM   25  H20 UNL     1      -2.588  -0.116 -11.282  1.00  0.00     0.167 HD
ENDROOT
TORSDOF 0
ENDMDL
