MODEL 1
REMARK VINA RESULT:      -7.6      0.000      0.000
REMARK  3 active torsions:
REMARK  status: ('A' for Active; 'I' for Inactive)
REMARK    1  A    between atoms: C8_9  and  N1_10 
REMARK    2  A    between atoms: C12_14  and  C13_16 
REMARK    3  A    between atoms: C13_16  and  C14_18 
ROOT
HETATM    1  C1  UNL     1       0.167   0.657  -9.778  1.00  0.00     0.003 A 
HETATM    2  C2  UNL     1       1.396   1.292  -9.936  1.00  0.00     0.026 A 
HETATM    3  C3  UNL     1       1.525   2.376 -10.816  1.00  0.00     0.062 A 
HETATM    4  C4  UNL     1       0.422   2.860 -11.545  1.00  0.00     0.076 A 
HETATM    5  C5  UNL     1      -0.807   2.188 -11.384  1.00  0.00     0.062 A 
HETATM    6  C6  UNL     1      -0.933   1.104 -10.504  1.00  0.00     0.026 A 
HETATM    7 CL1  UNL     1       3.105   3.060 -10.985  1.00  0.00    -0.082 Cl
HETATM    8  C7  UNL     1       0.759   2.560 -14.519  1.00  0.00     0.030 A 
HETATM    9  C8  UNL     1       0.767   3.808 -13.872  1.00  0.00     0.039 A 
HETATM   10  N1  UNL     1       0.554   3.927 -12.469  1.00  0.00    -0.353 N 
HETATM   11  C9  UNL     1       0.954   2.458 -15.898  1.00  0.00     0.002 A 
HETATM   12  C10 UNL     1       1.146   3.604 -16.659  1.00  0.00     0.001 A 
HETATM   13  C11 UNL     1       1.123   4.854 -16.045  1.00  0.00     0.010 A 
HETATM   14  C12 UNL     1       0.915   4.974 -14.659  1.00  0.00    -0.021 A 
HETATM   15 CL2  UNL     1      -2.237   2.676 -12.233  1.00  0.00    -0.082 Cl
HETATM   16 NA1  UNL     1       0.797   3.486 -13.044  1.00  0.00     0.000 Na
HETATM   17  H5  UNL     1       1.212   4.655 -12.111  1.00  0.00     0.166 HD
ENDROOT
BRANCH  14  18
HETATM   18  C13 UNL     1       0.834   6.364 -14.059  1.00  0.00     0.153 C 
BRANCH  18  19
HETATM   19  C14 UNL     1       2.176   6.841 -13.506  1.00  0.00     0.177 C 
HETATM   20  O1  UNL     1       2.808   7.660 -14.231  1.00  0.00    -0.648 OA
HETATM   21  O2  UNL     1       2.475   6.379 -12.362  1.00  0.00    -0.648 OA
ENDBRANCH  18  19
ENDBRANCH  14  18
TORSDOF 3
ENDMDL
MODEL 2
REMARK VINA RESULT:      -7.4     13.138     15.394
REMARK  3 active torsions:
REMARK  status: ('A' for Active; 'I' for Inactive)
REMARK    1  A    between atoms: C8_9  and  N1_10 
REMARK    2  A    between atoms: C12_14  and  C13_16 
REMARK    3  A    between atoms: C13_16  and  C14_18 
ROOT
HETATM    1  C1  UNL     1      -9.458   9.724 -24.831  1.00  0.00     0.003 A 
HETATM    2  C2  UNL     1      -8.509   9.237 -25.725  1.00  0.00     0.026 A 
HETATM    3  C3  UNL     1      -7.146   9.488 -25.517  1.00  0.00     0.062 A 
HETATM    4  C4  UNL     1      -6.700  10.220 -24.400  1.00  0.00     0.076 A 
HETATM    5  C5  UNL     1      -7.682  10.720 -23.520  1.00  0.00     0.062 A 
HETATM    6  C6  UNL     1      -9.045  10.468 -23.731  1.00  0.00     0.026 A 
HETATM    7 CL1  UNL     1      -6.050   8.890 -26.714  1.00  0.00    -0.082 Cl
HETATM    8  C7  UNL     1      -5.351  12.802 -25.150  1.00  0.00     0.030 A 
HETATM    9  C8  UNL     1      -4.657  11.710 -24.600  1.00  0.00     0.039 A 
HETATM   10  N1  UNL     1      -5.328  10.516 -24.206  1.00  0.00    -0.353 N 
HETATM   11  C9  UNL     1      -4.683  13.972 -25.518  1.00  0.00     0.002 A 
HETATM   12  C10 UNL     1      -3.312  14.078 -25.330  1.00  0.00     0.001 A 
HETATM   13  C11 UNL     1      -2.609  13.021 -24.755  1.00  0.00     0.010 A 
HETATM   14  C12 UNL     1      -3.268  11.840 -24.367  1.00  0.00    -0.021 A 
HETATM   15 CL2  UNL     1      -7.267  11.646 -22.114  1.00  0.00    -0.082 Cl
HETATM   16 NA1  UNL     1      -5.328  11.129 -24.663  1.00  0.00     0.000 Na
HETATM   17  H5  UNL     1      -4.725   9.709 -24.485  1.00  0.00     0.166 HD
ENDROOT
BRANCH  14  18
HETATM   18  C13 UNL     1      -2.461  10.753 -23.687  1.00  0.00     0.153 C 
BRANCH  18  19
HETATM   19  C14 UNL     1      -2.697  10.706 -22.178  1.00  0.00     0.177 C 
HETATM   20  O1  UNL     1      -2.075  11.571 -21.499  1.00  0.00    -0.648 OA
HETATM   21  O2  UNL     1      -3.522   9.821 -21.795  1.00  0.00    -0.648 OA
ENDBRANCH  18  19
ENDBRANCH  14  18
TORSDOF 3
ENDMDL
