MODEL 1
REMARK VINA RESULT:      -8.2      0.000      0.000
REMARK  6 active torsions:
REMARK  status: ('A' for Active; 'I' for Inactive)
REMARK    1  A    between atoms: C12_12  and  O1_13 
REMARK    2  A    between atoms: C19_21  and  C20_22 
REMARK    3  A    between atoms: C19_21  and  O5_26 
REMARK    4  A    between atoms: C20_22  and  C21_23 
REMARK    5  A    between atoms: C20_22  and  O4_25 
REMARK    6  A    between atoms: C21_23  and  O3_24 
ROOT
HETATM    1  C1  UNL     1      -0.093   6.882 -12.362  1.00  0.00     0.019 C 
HETATM    2  C2  UNL     1       1.352   6.425 -12.689  1.00  0.00     0.000 C 
HETATM    3  C3  UNL     1       1.941   5.479 -11.616  1.00  0.00     0.002 C 
HETATM    4  C4  UNL     1       1.088   4.231 -11.357  1.00  0.00     0.002 C 
HETATM    5  C5  UNL     1       0.856   3.440 -12.674  1.00  0.00     0.068 C 
HETATM    6  C6  UNL     1      -0.158   2.249 -12.437  1.00  0.00    -0.029 C 
HETATM    7  C7  UNL     1      -1.616   2.782 -12.370  1.00  0.00     0.016 C 
HETATM    8  C8  UNL     1       0.151   1.518 -11.069  1.00  0.00    -0.003 C 
HETATM    9  C9  UNL     1       1.542   1.854 -10.514  1.00  0.00     0.006 C 
HETATM   10  C10 UNL     1       1.740   3.346 -10.281  1.00  0.00     0.006 C 
HETATM   11  C11 UNL     1       0.024  -0.018 -11.135  1.00  0.00     0.037 C 
HETATM   12  C12 UNL     1      -1.117  -0.486 -12.022  1.00  0.00     0.118 C 
HETATM   13  C13 UNL     1      -0.945  -0.002 -13.459  1.00  0.00     0.032 C 
HETATM   14  C14 UNL     1      -0.035   1.223 -13.595  1.00  0.00     0.013 C 
HETATM   15  C15 UNL     1       0.520   4.377 -13.865  1.00  0.00     0.133 C 
HETATM   16  O2  UNL     1      -0.294   4.086 -14.742  1.00  0.00    -0.298 OA
HETATM   17  C16 UNL     1       1.338   5.652 -14.010  1.00  0.00     0.091 C 
HETATM   18  C17 UNL     1       2.230   6.407 -10.439  1.00  0.00     0.009 C 
HETATM   19  C18 UNL     1       2.602   7.759 -11.084  1.00  0.00     0.042 C 
HETATM   20  C19 UNL     1       2.393   7.594 -12.613  1.00  0.00     0.093 C 
ENDROOT
BRANCH  20  21
HETATM   21  C20 UNL     1       2.033   8.930 -13.336  1.00  0.00     0.176 C 
BRANCH  21  22
HETATM   22  C21 UNL     1       2.644   9.038 -14.750  1.00  0.00     0.198 C 
BRANCH  22  23
HETATM   23  O3  UNL     1       4.054   9.230 -14.706  1.00  0.00    -0.398 OA
HETATM   24  H32 UNL     1       4.382   8.736 -13.932  1.00  0.00     0.209 HD
ENDBRANCH  22  23
ENDBRANCH  21  22
BRANCH  21  25
HETATM   25  O4  UNL     1       2.457  10.080 -12.607  1.00  0.00    -0.390 OA
HETATM   26  H33 UNL     1       2.165   9.967 -11.685  1.00  0.00     0.210 HD
ENDBRANCH  21  25
ENDBRANCH  20  21
BRANCH  20  27
HETATM   27  O5  UNL     1       3.631   7.086 -13.158  1.00  0.00    -0.386 OA
HETATM   28  H34 UNL     1       4.322   7.768 -13.013  1.00  0.00     0.210 HD
ENDBRANCH  20  27
BRANCH  12  29
HETATM   29  O1  UNL     1      -1.165  -1.911 -11.998  1.00  0.00    -0.396 OA
HETATM   30  H18 UNL     1      -0.681  -2.204 -11.206  1.00  0.00     0.210 HD
ENDBRANCH  12  29
TORSDOF 6
ENDMDL
MODEL 2
REMARK VINA RESULT:      -7.9      1.659      7.589
REMARK  6 active torsions:
REMARK  status: ('A' for Active; 'I' for Inactive)
REMARK    1  A    between atoms: C12_12  and  O1_13 
REMARK    2  A    between atoms: C19_21  and  C20_22 
REMARK    3  A    between atoms: C19_21  and  O5_26 
REMARK    4  A    between atoms: C20_22  and  C21_23 
REMARK    5  A    between atoms: C20_22  and  O4_25 
REMARK    6  A    between atoms: C21_23  and  O3_24 
ROOT
HETATM    1  C1  UNL     1      -1.668   2.840 -10.674  1.00  0.00     0.019 C 
HETATM    2  C2  UNL     1      -0.361   2.107 -11.071  1.00  0.00     0.000 C 
HETATM    3  C3  UNL     1       0.040   2.347 -12.546  1.00  0.00     0.002 C 
HETATM    4  C4  UNL     1       0.189   3.829 -12.912  1.00  0.00     0.002 C 
HETATM    5  C5  UNL     1       1.216   4.526 -11.976  1.00  0.00     0.068 C 
HETATM    6  C6  UNL     1       1.246   6.083 -12.244  1.00  0.00    -0.029 C 
HETATM    7  C7  UNL     1       0.016   6.772 -11.590  1.00  0.00     0.016 C 
HETATM    8  C8  UNL     1       1.197   6.383 -13.796  1.00  0.00    -0.003 C 
HETATM    9  C9  UNL     1       1.527   5.152 -14.651  1.00  0.00     0.006 C 
HETATM   10  C10 UNL     1       0.588   3.982 -14.389  1.00  0.00     0.006 C 
HETATM   11  C11 UNL     1       2.122   7.534 -14.244  1.00  0.00     0.037 C 
HETATM   12  C12 UNL     1       2.191   8.670 -13.238  1.00  0.00     0.118 C 
HETATM   13  C13 UNL     1       2.714   8.193 -11.886  1.00  0.00     0.032 C 
HETATM   14  C14 UNL     1       2.550   6.687 -11.656  1.00  0.00     0.013 C 
HETATM   15  C15 UNL     1       1.029   4.105 -10.493  1.00  0.00     0.133 C 
HETATM   16  O2  UNL     1       1.175   4.884  -9.549  1.00  0.00    -0.298 OA
HETATM   17  C16 UNL     1       0.785   2.632 -10.203  1.00  0.00     0.091 C 
HETATM   18  C17 UNL     1      -0.969   1.513 -13.332  1.00  0.00     0.009 C 
HETATM   19  C18 UNL     1      -1.273   0.302 -12.425  1.00  0.00     0.042 C 
HETATM   20  C19 UNL     1      -0.521   0.547 -11.091  1.00  0.00     0.093 C 
ENDROOT
BRANCH  20  21
HETATM   21  C20 UNL     1      -1.207  -0.124  -9.860  1.00  0.00     0.176 C 
BRANCH  21  22
HETATM   22  C21 UNL     1      -0.252  -1.023  -9.047  1.00  0.00     0.198 C 
BRANCH  22  23
HETATM   23  O3  UNL     1       0.056  -2.231  -9.735  1.00  0.00    -0.398 OA
HETATM   24  H32 UNL     1      -0.250  -2.118 -10.654  1.00  0.00     0.209 HD
ENDBRANCH  22  23
ENDBRANCH  21  22
BRANCH  21  25
HETATM   25  O4  UNL     1      -2.328  -0.927 -10.227  1.00  0.00    -0.390 OA
HETATM   26  H33 UNL     1      -2.733  -1.258  -9.406  1.00  0.00     0.210 HD
ENDBRANCH  21  25
ENDBRANCH  20  21
BRANCH  20  27
HETATM   27  O5  UNL     1       0.806  -0.005 -11.244  1.00  0.00    -0.386 OA
HETATM   28  H34 UNL     1       1.277   0.534 -11.915  1.00  0.00     0.210 HD
ENDBRANCH  20  27
BRANCH  12  29
HETATM   29  O1  UNL     1       3.047   9.689 -13.752  1.00  0.00    -0.396 OA
HETATM   30  H18 UNL     1       3.701   9.255 -14.327  1.00  0.00     0.210 HD
ENDBRANCH  12  29
TORSDOF 6
ENDMDL
