MODEL 1
REMARK VINA RESULT:      -8.0      0.000      0.000
REMARK  12 active torsions:
REMARK  status: ('A' for Active; 'I' for Inactive)
REMARK    1  A    between atoms: C1_1  and  O5_20 
REMARK    2  A    between atoms: C5_5  and  O4_19 
REMARK    3  A    between atoms: C8_8  and  O2_12 
REMARK    4  A    between atoms: C9_9  and  C10_11 
REMARK    5  A    between atoms: O2_12  and  C16_21 
REMARK    6  A    between atoms: C12_14  and  O7_29 
REMARK    7  A    between atoms: C13_15  and  O3_18 
REMARK    8  A    between atoms: C14_16  and  O8_30 
REMARK    9  A    between atoms: C16_21  and  C17_22 
REMARK   10  A    between atoms: C19_25  and  O11_33 
REMARK   11  A    between atoms: C20_26  and  O10_32 
REMARK   12  A    between atoms: C21_27  and  O9_31 
ROOT
HETATM    1  C1  UNL     1      -0.466   0.892 -12.426  1.00  0.00     0.077 A 
HETATM    2  C2  UNL     1       0.251   1.998 -11.948  1.00  0.00     0.011 A 
HETATM    3  C3  UNL     1       1.031   1.840 -10.800  1.00  0.00     0.081 A 
HETATM    4  C4  UNL     1       1.112   0.601 -10.160  1.00  0.00     0.074 A 
HETATM    5  C5  UNL     1       0.403  -0.483 -10.665  1.00  0.00     0.071 A 
HETATM    6  C6  UNL     1      -0.389  -0.349 -11.796  1.00  0.00     0.073 A 
HETATM    7  C7  UNL     1       0.144   3.329 -12.622  1.00  0.00     0.080 C 
HETATM    8  C8  UNL     1       1.333   4.217 -12.278  1.00  0.00     0.170 C 
HETATM    9  C9  UNL     1       1.663   4.160 -10.769  1.00  0.00     0.192 C 
HETATM   10  O1  UNL     1       1.759   2.839 -10.217  1.00  0.00    -0.338 OA
ENDROOT
BRANCH   8  11
HETATM   11  O2  UNL     1       1.024   5.550 -12.741  1.00  0.00    -0.309 OA
BRANCH  11  12
HETATM   12  C16 UNL     1       1.871   6.092 -13.643  1.00  0.00     0.294 C 
HETATM   13  O6  UNL     1       2.343   5.528 -14.613  1.00  0.00    -0.259 OA
BRANCH  12  14
HETATM   14  C17 UNL     1       2.172   7.496 -13.273  1.00  0.00     0.045 A 
HETATM   15  C18 UNL     1       2.470   7.776 -11.929  1.00  0.00     0.057 A 
HETATM   16  C19 UNL     1       2.740   9.086 -11.541  1.00  0.00     0.102 A 
HETATM   17  C20 UNL     1       2.698  10.111 -12.483  1.00  0.00     0.132 A 
HETATM   18  C21 UNL     1       2.382   9.833 -13.813  1.00  0.00     0.102 A 
HETATM   19  C22 UNL     1       2.121   8.530 -14.220  1.00  0.00     0.057 A 
BRANCH  16  20
HETATM   20  O11 UNL     1       3.036   9.377 -10.243  1.00  0.00    -0.358 OA
HETATM   21  H18 UNL     1       3.277  10.312 -10.163  1.00  0.00     0.217 HD
ENDBRANCH  16  20
BRANCH  17  22
HETATM   22  O10 UNL     1       2.956  11.404 -12.121  1.00  0.00    -0.356 OA
HETATM   23  H17 UNL     1       3.899  11.542 -12.331  1.00  0.00     0.218 HD
ENDBRANCH  17  22
BRANCH  18  24
HETATM   24  O9  UNL     1       2.334  10.882 -14.690  1.00  0.00    -0.358 OA
HETATM   25  H16 UNL     1       1.590  10.741 -15.304  1.00  0.00     0.217 HD
ENDBRANCH  18  24
ENDBRANCH  12  14
ENDBRANCH  11  12
ENDBRANCH   8  11
BRANCH   9  26
HETATM   26  C10 UNL     1       0.801   5.049  -9.875  1.00  0.00    -0.021 A 
HETATM   27  C11 UNL     1      -0.559   4.774  -9.639  1.00  0.00     0.049 A 
HETATM   28  C12 UNL     1      -1.315   5.627  -8.843  1.00  0.00     0.102 A 
HETATM   29  C13 UNL     1      -0.737   6.751  -8.266  1.00  0.00     0.132 A 
HETATM   30  C14 UNL     1       0.605   7.030  -8.480  1.00  0.00     0.102 A 
HETATM   31  C15 UNL     1       1.379   6.191  -9.277  1.00  0.00     0.049 A 
BRANCH  28  32
HETATM   32  O7  UNL     1      -2.632   5.354  -8.628  1.00  0.00    -0.358 OA
HETATM   33  H14 UNL     1      -2.632   4.665  -7.937  1.00  0.00     0.217 HD
ENDBRANCH  28  32
BRANCH  29  34
HETATM   34  O3  UNL     1      -1.506   7.568  -7.484  1.00  0.00    -0.356 OA
HETATM   35  H9  UNL     1      -0.856   8.088  -6.969  1.00  0.00     0.218 HD
ENDBRANCH  29  34
BRANCH  30  36
HETATM   36  O8  UNL     1       1.126   8.145  -7.885  1.00  0.00    -0.358 OA
HETATM   37  H15 UNL     1       1.238   7.967  -6.936  1.00  0.00     0.217 HD
ENDBRANCH  30  36
ENDBRANCH   9  26
BRANCH   1  38
HETATM   38  O5  UNL     1      -1.257   1.051 -13.531  1.00  0.00    -0.360 OA
HETATM   39  H11 UNL     1      -1.617   1.953 -13.527  1.00  0.00     0.217 HD
ENDBRANCH   1  38
BRANCH   5  40
HETATM   40  O4  UNL     1       0.457  -1.709 -10.067  1.00  0.00    -0.361 OA
HETATM   41  H10 UNL     1       1.275  -2.155 -10.344  1.00  0.00     0.217 HD
ENDBRANCH   5  40
TORSDOF 12
ENDMDL
MODEL 2
REMARK VINA RESULT:      -7.9      0.330      1.478
REMARK  12 active torsions:
REMARK  status: ('A' for Active; 'I' for Inactive)
REMARK    1  A    between atoms: C1_1  and  O5_20 
REMARK    2  A    between atoms: C5_5  and  O4_19 
REMARK    3  A    between atoms: C8_8  and  O2_12 
REMARK    4  A    between atoms: C9_9  and  C10_11 
REMARK    5  A    between atoms: O2_12  and  C16_21 
REMARK    6  A    between atoms: C12_14  and  O7_29 
REMARK    7  A    between atoms: C13_15  and  O3_18 
REMARK    8  A    between atoms: C14_16  and  O8_30 
REMARK    9  A    between atoms: C16_21  and  C17_22 
REMARK   10  A    between atoms: C19_25  and  O11_33 
REMARK   11  A    between atoms: C20_26  and  O10_32 
REMARK   12  A    between atoms: C21_27  and  O9_31 
ROOT
HETATM    1  C1  UNL     1      -0.532   0.566 -12.399  1.00  0.00     0.077 A 
HETATM    2  C2  UNL     1       0.183   1.676 -11.929  1.00  0.00     0.011 A 
HETATM    3  C3  UNL     1       0.964   1.528 -10.780  1.00  0.00     0.081 A 
HETATM    4  C4  UNL     1       1.046   0.294 -10.130  1.00  0.00     0.074 A 
HETATM    5  C5  UNL     1       0.338  -0.794 -10.627  1.00  0.00     0.071 A 
HETATM    6  C6  UNL     1      -0.454  -0.670 -11.759  1.00  0.00     0.073 A 
HETATM    7  C7  UNL     1       0.075   3.002 -12.614  1.00  0.00     0.080 C 
HETATM    8  C8  UNL     1       1.263   3.894 -12.277  1.00  0.00     0.170 C 
HETATM    9  C9  UNL     1       1.594   3.849 -10.767  1.00  0.00     0.192 C 
HETATM   10  O1  UNL     1       1.690   2.532 -10.205  1.00  0.00    -0.338 OA
ENDROOT
BRANCH   8  11
HETATM   11  O2  UNL     1       0.953   5.223 -12.750  1.00  0.00    -0.309 OA
BRANCH  11  12
HETATM   12  C16 UNL     1       1.833   5.783 -13.609  1.00  0.00     0.294 C 
HETATM   13  O6  UNL     1       2.329   5.244 -14.581  1.00  0.00    -0.259 OA
BRANCH  12  14
HETATM   14  C17 UNL     1       2.135   7.172 -13.187  1.00  0.00     0.045 A 
HETATM   15  C18 UNL     1       2.179   8.168 -14.177  1.00  0.00     0.057 A 
HETATM   16  C19 UNL     1       2.477   9.481 -13.821  1.00  0.00     0.102 A 
HETATM   17  C20 UNL     1       2.744   9.796 -12.491  1.00  0.00     0.132 A 
HETATM   18  C21 UNL     1       2.719   8.802 -11.514  1.00  0.00     0.102 A 
HETATM   19  C22 UNL     1       2.413   7.488 -11.849  1.00  0.00     0.057 A 
BRANCH  16  20
HETATM   20  O11 UNL     1       2.519  10.462 -14.767  1.00  0.00    -0.358 OA
HETATM   21  H18 UNL     1       3.263  10.306 -15.368  1.00  0.00     0.217 HD
ENDBRANCH  16  20
BRANCH  17  22
HETATM   22  O10 UNL     1       3.042  11.079 -12.123  1.00  0.00    -0.356 OA
HETATM   23  H17 UNL     1       3.505  11.461 -12.893  1.00  0.00     0.218 HD
ENDBRANCH  17  22
BRANCH  18  24
HETATM   24  O9  UNL     1       3.010   9.165 -10.227  1.00  0.00    -0.358 OA
HETATM   25  H16 UNL     1       2.181   9.407  -9.776  1.00  0.00     0.217 HD
ENDBRANCH  18  24
ENDBRANCH  12  14
ENDBRANCH  11  12
ENDBRANCH   8  11
BRANCH   9  26
HETATM   26  C10 UNL     1       0.730   4.743  -9.881  1.00  0.00    -0.021 A 
HETATM   27  C11 UNL     1      -0.600   4.414  -9.558  1.00  0.00     0.049 A 
HETATM   28  C12 UNL     1      -1.359   5.273  -8.772  1.00  0.00     0.102 A 
HETATM   29  C13 UNL     1      -0.816   6.457  -8.291  1.00  0.00     0.132 A 
HETATM   30  C14 UNL     1       0.497   6.792  -8.591  1.00  0.00     0.102 A 
HETATM   31  C15 UNL     1       1.274   5.948  -9.380  1.00  0.00     0.049 A 
BRANCH  28  32
HETATM   32  O7  UNL     1      -2.648   4.946  -8.472  1.00  0.00    -0.358 OA
HETATM   33  H14 UNL     1      -2.619   3.993  -8.264  1.00  0.00     0.217 HD
ENDBRANCH  28  32
BRANCH  29  34
HETATM   34  O3  UNL     1      -1.588   7.279  -7.517  1.00  0.00    -0.356 OA
HETATM   35  H9  UNL     1      -1.056   8.096  -7.431  1.00  0.00     0.218 HD
ENDBRANCH  29  34
BRANCH  30  36
HETATM   36  O8  UNL     1       0.986   7.965  -8.089  1.00  0.00    -0.358 OA
HETATM   37  H15 UNL     1       1.942   7.867  -7.947  1.00  0.00     0.217 HD
ENDBRANCH  30  36
ENDBRANCH   9  26
BRANCH   1  38
HETATM   38  O5  UNL     1      -1.323   0.715 -13.505  1.00  0.00    -0.360 OA
HETATM   39  H11 UNL     1      -1.833   1.538 -13.414  1.00  0.00     0.217 HD
ENDBRANCH   1  38
BRANCH   5  40
HETATM   40  O4  UNL     1       0.394  -2.015 -10.020  1.00  0.00    -0.361 OA
HETATM   41  H10 UNL     1       1.323  -2.294  -9.964  1.00  0.00     0.217 HD
ENDBRANCH   5  40
TORSDOF 12
ENDMDL
