MODEL 1
REMARK VINA RESULT:      -6.6      0.000      0.000
REMARK  15 active torsions:
REMARK  status: ('A' for Active; 'I' for Inactive)
REMARK    1  A    between atoms: C2_2  and  C13_15 
REMARK    2  A    between atoms: C3_3  and  C6_8 
REMARK    3  A    between atoms: C4_4  and  O1_6 
REMARK    4  A    between atoms: C6_8  and  C7_9 
REMARK    5  A    between atoms: C8_10  and  C9_11 
REMARK    6  A    between atoms: C9_11  and  C10_12 
REMARK    7  A    between atoms: C10_12  and  C11_13 
REMARK    8  A    between atoms: C11_13  and  C12_14 
REMARK    9  A    between atoms: C12_14  and  O4_24 
REMARK   10  A    between atoms: C13_15  and  C14_16 
REMARK   11  A    between atoms: C14_16  and  C15_17 
REMARK   12  A    between atoms: C15_17  and  C16_18 
REMARK   13  A    between atoms: C16_18  and  C17_19 
REMARK   14  A    between atoms: C17_19  and  C18_20 
REMARK   15  A    between atoms: C18_20  and  C19_21 
ROOT
HETATM    1  C1  UNL     1       0.208  -0.059 -11.127  1.00  0.00     0.134 C 
HETATM    2  C2  UNL     1      -0.618   1.163 -11.486  1.00  0.00     0.062 C 
HETATM    3  C3  UNL     1      -1.007   0.845 -12.947  1.00  0.00     0.029 C 
HETATM    4  C4  UNL     1      -1.099  -0.690 -12.976  1.00  0.00     0.130 C 
HETATM    5  C5  UNL     1       0.034  -1.198 -12.095  1.00  0.00     0.110 C 
HETATM    6  O2  UNL     1       0.930  -0.116 -10.138  1.00  0.00    -0.297 OA
ENDROOT
BRANCH   3   7
HETATM    7  C6  UNL     1      -0.057   1.481 -13.992  1.00  0.00     0.035 C 
BRANCH   7   8
HETATM    8  C7  UNL     1      -0.684   2.324 -15.069  1.00  0.00    -0.030 C 
HETATM    9  C8  UNL     1      -0.073   3.131 -15.952  1.00  0.00    -0.031 C 
BRANCH   9  10
HETATM   10  C9  UNL     1       1.396   3.417 -16.085  1.00  0.00     0.027 C 
BRANCH  10  11
HETATM   11  C10 UNL     1       1.922   4.441 -15.073  1.00  0.00     0.014 C 
BRANCH  11  12
HETATM   12  C11 UNL     1       0.952   5.594 -14.814  1.00  0.00     0.110 C 
BRANCH  12  13
HETATM   13  C12 UNL     1       1.604   6.701 -14.028  1.00  0.00     0.139 C 
HETATM   14  O5  UNL     1       2.787   6.989 -13.981  1.00  0.00    -0.650 OA
BRANCH  13  15
HETATM   15  O4  UNL     1       0.698   7.420 -13.334  1.00  0.00    -0.776 OA
HETATM   16  H32 UNL     1       0.806   8.331 -13.681  1.00  0.00     0.167 HD
ENDBRANCH  13  15
ENDBRANCH  12  13
ENDBRANCH  11  12
ENDBRANCH  10  11
ENDBRANCH   9  10
ENDBRANCH   7   8
ENDBRANCH   3   7
BRANCH   2  17
HETATM   17  C13 UNL     1      -1.842   1.273 -10.570  1.00  0.00     0.020 C 
BRANCH  17  18
HETATM   18  C14 UNL     1      -1.504   1.886  -9.208  1.00  0.00     0.079 C 
BRANCH  18  19
HETATM   19  C15 UNL     1      -1.863   3.363  -9.139  1.00  0.00     0.127 C 
HETATM   20  O3  UNL     1      -2.102   3.925  -8.071  1.00  0.00    -0.298 OA
BRANCH  19  21
HETATM   21  C16 UNL     1      -1.967   4.081 -10.478  1.00  0.00     0.078 C 
BRANCH  21  22
HETATM   22  C17 UNL     1      -0.793   5.011 -10.783  1.00  0.00     0.007 C 
BRANCH  22  23
HETATM   23  C18 UNL     1       0.563   4.496 -10.283  1.00  0.00     0.000 C 
BRANCH  23  24
HETATM   24  C19 UNL     1       1.548   4.136 -11.395  1.00  0.00    -0.005 C 
HETATM   25  C20 UNL     1       2.495   3.029 -10.958  1.00  0.00     0.005 C 
ENDBRANCH  23  24
ENDBRANCH  22  23
ENDBRANCH  21  22
ENDBRANCH  19  21
ENDBRANCH  18  19
ENDBRANCH  17  18
ENDBRANCH   2  17
BRANCH   4  26
HETATM   26  O1  UNL     1      -1.017  -1.225 -14.282  1.00  0.00    -0.395 OA
HETATM   27  H10 UNL     1      -1.698  -0.793 -14.828  1.00  0.00     0.210 HD
ENDBRANCH   4  26
TORSDOF 15
ENDMDL
MODEL 2
REMARK VINA RESULT:      -6.5      1.905      7.101
REMARK  15 active torsions:
REMARK  status: ('A' for Active; 'I' for Inactive)
REMARK    1  A    between atoms: C2_2  and  C13_15 
REMARK    2  A    between atoms: C3_3  and  C6_8 
REMARK    3  A    between atoms: C4_4  and  O1_6 
REMARK    4  A    between atoms: C6_8  and  C7_9 
REMARK    5  A    between atoms: C8_10  and  C9_11 
REMARK    6  A    between atoms: C9_11  and  C10_12 
REMARK    7  A    between atoms: C10_12  and  C11_13 
REMARK    8  A    between atoms: C11_13  and  C12_14 
REMARK    9  A    between atoms: C12_14  and  O4_24 
REMARK   10  A    between atoms: C13_15  and  C14_16 
REMARK   11  A    between atoms: C14_16  and  C15_17 
REMARK   12  A    between atoms: C15_17  and  C16_18 
REMARK   13  A    between atoms: C16_18  and  C17_19 
REMARK   14  A    between atoms: C17_19  and  C18_20 
REMARK   15  A    between atoms: C18_20  and  C19_21 
ROOT
HETATM    1  C1  UNL     1       2.478   6.934 -13.035  1.00  0.00     0.134 C 
HETATM    2  C2  UNL     1       2.001   5.517 -13.296  1.00  0.00     0.062 C 
HETATM    3  C3  UNL     1       1.011   5.312 -12.128  1.00  0.00     0.029 C 
HETATM    4  C4  UNL     1       0.444   6.719 -11.877  1.00  0.00     0.130 C 
HETATM    5  C5  UNL     1       1.607   7.683 -12.064  1.00  0.00     0.110 C 
HETATM    6  O2  UNL     1       3.464   7.422 -13.577  1.00  0.00    -0.297 OA
ENDROOT
BRANCH   3   7
HETATM    7  C6  UNL     1       1.643   4.614 -10.898  1.00  0.00     0.035 C 
BRANCH   7   8
HETATM    8  C7  UNL     1       2.278   3.268 -11.121  1.00  0.00    -0.030 C 
HETATM    9  C8  UNL     1       2.063   2.127 -10.447  1.00  0.00    -0.031 C 
BRANCH   9  10
HETATM   10  C9  UNL     1       1.144   1.898  -9.279  1.00  0.00     0.027 C 
BRANCH  10  11
HETATM   11  C10 UNL     1       0.970   0.420  -8.910  1.00  0.00     0.014 C 
BRANCH  11  12
HETATM   12  C11 UNL     1      -0.164  -0.268  -9.668  1.00  0.00     0.110 C 
BRANCH  12  13
HETATM   13  C12 UNL     1       0.272  -1.592 -10.236  1.00  0.00     0.139 C 
HETATM   14  O5  UNL     1       0.726  -1.818 -11.344  1.00  0.00    -0.650 OA
BRANCH  13  15
HETATM   15  O4  UNL     1       0.126  -2.591  -9.341  1.00  0.00    -0.776 OA
HETATM   16  H32 UNL     1       1.042  -2.779  -9.047  1.00  0.00     0.167 HD
ENDBRANCH  13  15
ENDBRANCH  12  13
ENDBRANCH  11  12
ENDBRANCH  10  11
ENDBRANCH   9  10
ENDBRANCH   7   8
ENDBRANCH   3   7
BRANCH   2  17
HETATM   17  C13 UNL     1       1.314   5.423 -14.663  1.00  0.00     0.020 C 
BRANCH  17  18
HETATM   18  C14 UNL     1       1.592   4.094 -15.372  1.00  0.00     0.079 C 
BRANCH  18  19
HETATM   19  C15 UNL     1       0.309   3.375 -15.763  1.00  0.00     0.127 C 
HETATM   20  O3  UNL     1       0.059   3.082 -16.932  1.00  0.00    -0.298 OA
BRANCH  19  21
HETATM   21  C16 UNL     1      -0.666   3.097 -14.628  1.00  0.00     0.078 C 
BRANCH  21  22
HETATM   22  C17 UNL     1      -0.367   1.821 -13.842  1.00  0.00     0.007 C 
BRANCH  22  23
HETATM   23  C18 UNL     1      -1.042   1.757 -12.466  1.00  0.00     0.000 C 
BRANCH  23  24
HETATM   24  C19 UNL     1      -1.827   3.014 -12.092  1.00  0.00    -0.005 C 
HETATM   25  C20 UNL     1      -1.800   3.258 -10.592  1.00  0.00     0.005 C 
ENDBRANCH  23  24
ENDBRANCH  22  23
ENDBRANCH  21  22
ENDBRANCH  19  21
ENDBRANCH  18  19
ENDBRANCH  17  18
ENDBRANCH   2  17
BRANCH   4  26
HETATM   26  O1  UNL     1      -0.144   6.860 -10.600  1.00  0.00    -0.395 OA
HETATM   27  H10 UNL     1       0.264   6.204 -10.007  1.00  0.00     0.210 HD
ENDBRANCH   4  26
TORSDOF 15
ENDMDL
