MODEL 1
REMARK VINA RESULT:      -6.6      0.000      0.000
REMARK  17 active torsions:
REMARK  status: ('A' for Active; 'I' for Inactive)
REMARK    1  A    between atoms: C1_1  and  C5_5 
REMARK    2  A    between atoms: C2_2  and  C9_9 
REMARK    3  A    between atoms: C3_3  and  C6_6 
REMARK    4  A    between atoms: C4_4  and  C5_5 
REMARK    5  A    between atoms: C6_6  and  C7_7 
REMARK    6  A    between atoms: C8_8  and  C12_12 
REMARK    7  A    between atoms: C9_9  and  C10_10 
REMARK    8  A    between atoms: C11_11  and  C16_17 
REMARK    9  A    between atoms: C12_12  and  C13_13 
REMARK   10  A    between atoms: C13_13  and  C14_14 
REMARK   11  A    between atoms: C14_14  and  C15_15 
REMARK       I    between atoms: C15_15  and  N1_16 
REMARK   12  A    between atoms: N1_16  and  C21_22 
REMARK   13  A    between atoms: C16_17  and  C17_18 
REMARK   14  A    between atoms: C17_18  and  C18_19 
REMARK   15  A    between atoms: C18_19  and  C19_20 
REMARK   16  A    between atoms: C21_22  and  C22_23 
REMARK   17  A    between atoms: C22_23  and  O1_24 
ROOT
HETATM    1  C6  UNL     1       1.882   4.739 -14.659  1.00  0.00     0.053 C 
ENDROOT
BRANCH   1   2
HETATM    2  C3  UNL     1       1.664   4.013 -15.955  1.00  0.00    -0.027 C 
HETATM    3  C4  UNL     1       0.562   3.360 -16.361  1.00  0.00    -0.027 C 
BRANCH   3   4
HETATM    4  C5  UNL     1      -0.723   3.158 -15.608  1.00  0.00     0.053 C 
BRANCH   4   5
HETATM    5  C1  UNL     1      -0.660   1.907 -14.778  1.00  0.00    -0.027 C 
HETATM    6  C2  UNL     1      -0.509   1.811 -13.447  1.00  0.00    -0.027 C 
BRANCH   6   7
HETATM    7  C9  UNL     1      -0.407   2.931 -12.448  1.00  0.00     0.053 C 
BRANCH   7   8
HETATM    8  C10 UNL     1       0.854   2.824 -11.640  1.00  0.00    -0.027 C 
HETATM    9  C11 UNL     1       1.516   3.807 -11.006  1.00  0.00    -0.030 C 
BRANCH   9  10
HETATM   10  C16 UNL     1       1.148   5.264 -10.928  1.00  0.00     0.027 C 
BRANCH  10  11
HETATM   11  C17 UNL     1       0.134   5.577  -9.824  1.00  0.00     0.004 C 
BRANCH  11  12
HETATM   12  C18 UNL     1      -1.222   6.121 -10.289  1.00  0.00    -0.000 C 
BRANCH  12  13
HETATM   13  C19 UNL     1      -2.376   5.142 -10.076  1.00  0.00    -0.005 C 
HETATM   14  C20 UNL     1      -2.016   4.073  -9.056  1.00  0.00     0.005 C 
ENDBRANCH  12  13
ENDBRANCH  11  12
ENDBRANCH  10  11
ENDBRANCH   9  10
ENDBRANCH   7   8
ENDBRANCH   6   7
ENDBRANCH   4   5
ENDBRANCH   3   4
ENDBRANCH   1   2
BRANCH   1  15
HETATM   15  C7  UNL     1       0.855   5.820 -14.473  1.00  0.00    -0.027 C 
HETATM   16  C8  UNL     1       1.058   7.111 -14.161  1.00  0.00    -0.030 C 
BRANCH  16  17
HETATM   17  C12 UNL     1       2.368   7.809 -13.927  1.00  0.00     0.027 C 
BRANCH  17  18
HETATM   18  C13 UNL     1       2.201   9.168 -13.244  1.00  0.00     0.013 C 
BRANCH  18  19
HETATM   19  C14 UNL     1       3.177   9.372 -12.083  1.00  0.00     0.103 C 
BRANCH  19  20
HETATM   20  C15 UNL     1       2.924  10.674 -11.348  1.00  0.00     0.217 C 
HETATM   21  N1  UNL     1       3.556  10.728 -10.125  1.00  0.00    -0.359 N 
HETATM   22  H21 UNL     1       3.899   9.867  -9.716  1.00  0.00     0.162 HD
HETATM   23  O2  UNL     1       2.237  11.589 -11.790  1.00  0.00    -0.274 OA
BRANCH  21  24
HETATM   24  C21 UNL     1       3.337  11.839  -9.219  1.00  0.00     0.148 C 
BRANCH  24  25
HETATM   25  C22 UNL     1       4.395  12.920  -9.414  1.00  0.00     0.183 C 
BRANCH  25  26
HETATM   26  O1  UNL     1       3.955  13.875 -10.381  1.00  0.00    -0.399 OA
HETATM   27  H37 UNL     1       4.613  14.591 -10.400  1.00  0.00     0.209 HD
ENDBRANCH  25  26
ENDBRANCH  24  25
ENDBRANCH  21  24
ENDBRANCH  19  20
ENDBRANCH  18  19
ENDBRANCH  17  18
ENDBRANCH  16  17
ENDBRANCH   1  15
TORSDOF 17
ENDMDL
MODEL 2
REMARK VINA RESULT:      -6.4      2.972      4.881
REMARK  17 active torsions:
REMARK  status: ('A' for Active; 'I' for Inactive)
REMARK    1  A    between atoms: C1_1  and  C5_5 
REMARK    2  A    between atoms: C2_2  and  C9_9 
REMARK    3  A    between atoms: C3_3  and  C6_6 
REMARK    4  A    between atoms: C4_4  and  C5_5 
REMARK    5  A    between atoms: C6_6  and  C7_7 
REMARK    6  A    between atoms: C8_8  and  C12_12 
REMARK    7  A    between atoms: C9_9  and  C10_10 
REMARK    8  A    between atoms: C11_11  and  C16_17 
REMARK    9  A    between atoms: C12_12  and  C13_13 
REMARK   10  A    between atoms: C13_13  and  C14_14 
REMARK   11  A    between atoms: C14_14  and  C15_15 
REMARK       I    between atoms: C15_15  and  N1_16 
REMARK   12  A    between atoms: N1_16  and  C21_22 
REMARK   13  A    between atoms: C16_17  and  C17_18 
REMARK   14  A    between atoms: C17_18  and  C18_19 
REMARK   15  A    between atoms: C18_19  and  C19_20 
REMARK   16  A    between atoms: C21_22  and  C22_23 
REMARK   17  A    between atoms: C22_23  and  O1_24 
ROOT
HETATM    1  C6  UNL     1      -1.817   2.735 -12.301  1.00  0.00     0.053 C 
ENDROOT
BRANCH   1   2
HETATM    2  C3  UNL     1      -0.879   1.783 -12.989  1.00  0.00    -0.027 C 
HETATM    3  C4  UNL     1      -0.399   1.858 -14.242  1.00  0.00    -0.027 C 
BRANCH   3   4
HETATM    4  C5  UNL     1      -0.705   2.891 -15.289  1.00  0.00     0.053 C 
BRANCH   4   5
HETATM    5  C1  UNL     1       0.414   2.981 -16.288  1.00  0.00    -0.027 C 
HETATM    6  C2  UNL     1       1.597   3.600 -16.143  1.00  0.00    -0.027 C 
BRANCH   6   7
HETATM    7  C9  UNL     1       2.116   4.322 -14.930  1.00  0.00     0.053 C 
BRANCH   7   8
HETATM    8  C10 UNL     1       1.502   5.687 -14.805  1.00  0.00    -0.027 C 
HETATM    9  C11 UNL     1       0.873   6.217 -13.743  1.00  0.00    -0.030 C 
BRANCH   9  10
HETATM   10  C16 UNL     1       0.645   5.584 -12.397  1.00  0.00     0.027 C 
BRANCH  10  11
HETATM   11  C17 UNL     1       1.887   5.595 -11.501  1.00  0.00     0.004 C 
BRANCH  11  12
HETATM   12  C18 UNL     1       1.675   5.140 -10.052  1.00  0.00    -0.000 C 
BRANCH  12  13
HETATM   13  C19 UNL     1       1.989   3.662  -9.826  1.00  0.00    -0.005 C 
HETATM   14  C20 UNL     1       2.314   2.957 -11.133  1.00  0.00     0.005 C 
ENDBRANCH  12  13
ENDBRANCH  11  12
ENDBRANCH  10  11
ENDBRANCH   9  10
ENDBRANCH   7   8
ENDBRANCH   6   7
ENDBRANCH   4   5
ENDBRANCH   3   4
ENDBRANCH   1   2
BRANCH   1  15
HETATM   15  C7  UNL     1      -1.499   2.833 -10.836  1.00  0.00    -0.027 C 
HETATM   16  C8  UNL     1      -1.778   3.843  -9.994  1.00  0.00    -0.030 C 
BRANCH  16  17
HETATM   17  C12 UNL     1      -2.490   5.130 -10.301  1.00  0.00     0.027 C 
BRANCH  17  18
HETATM   18  C13 UNL     1      -1.861   6.336  -9.597  1.00  0.00     0.013 C 
BRANCH  18  19
HETATM   19  C14 UNL     1      -1.563   6.070  -8.120  1.00  0.00     0.103 C 
BRANCH  19  20
HETATM   20  C15 UNL     1      -0.918   7.265  -7.445  1.00  0.00     0.217 C 
HETATM   21  N1  UNL     1       0.177   6.922  -6.683  1.00  0.00    -0.359 N 
HETATM   22  H21 UNL     1       0.309   5.949  -6.432  1.00  0.00     0.162 HD
HETATM   23  O2  UNL     1      -1.319   8.418  -7.564  1.00  0.00    -0.274 OA
BRANCH  21  24
HETATM   24  C21 UNL     1       0.855   7.906  -5.862  1.00  0.00     0.148 C 
BRANCH  24  25
HETATM   25  C22 UNL     1       2.108   8.429  -6.557  1.00  0.00     0.183 C 
BRANCH  25  26
HETATM   26  O1  UNL     1       1.751   9.243  -7.675  1.00  0.00    -0.399 OA
HETATM   27  H37 UNL     1       2.551   9.725  -7.949  1.00  0.00     0.209 HD
ENDBRANCH  25  26
ENDBRANCH  24  25
ENDBRANCH  21  24
ENDBRANCH  19  20
ENDBRANCH  18  19
ENDBRANCH  17  18
ENDBRANCH  16  17
ENDBRANCH   1  15
TORSDOF 17
ENDMDL
