MODEL 1
REMARK VINA RESULT:      -8.0      0.000      0.000
REMARK  3 active torsions:
REMARK  status: ('A' for Active; 'I' for Inactive)
REMARK    1  A    between atoms: C5_5  and  O3_17 
REMARK    2  A    between atoms: O3_17  and  S1_18 
REMARK    3  A    between atoms: S1_18  and  N1_19 
ROOT
HETATM    1  C1  UNL     1       0.733   5.212 -11.611  1.00  0.00     0.017 A 
HETATM    2  C2  UNL     1       0.484   4.337 -12.679  1.00  0.00     0.005 A 
HETATM    3  C3  UNL     1       0.517   4.884 -13.959  1.00  0.00     0.093 A 
HETATM    4  C4  UNL     1       0.811   6.230 -14.204  1.00  0.00     0.076 A 
HETATM    5  C5  UNL     1       1.049   7.075 -13.128  1.00  0.00     0.093 A 
HETATM    6  C6  UNL     1       1.024   6.565 -11.834  1.00  0.00     0.039 A 
HETATM    7  C7  UNL     1       0.172   2.895 -12.517  1.00  0.00    -0.033 A 
HETATM    8  C8  UNL     1      -0.206   2.191 -13.608  1.00  0.00     0.025 A 
HETATM    9  C9  UNL     1      -0.164   2.791 -14.978  1.00  0.00     0.295 A 
HETATM   10  O1  UNL     1       0.243   4.106 -15.090  1.00  0.00    -0.274 OA
HETATM   11  C10 UNL     1       0.338   2.317 -11.119  1.00  0.00     0.040 C 
HETATM   12  C11 UNL     1       0.615   0.816 -11.013  1.00  0.00     0.005 C 
HETATM   13  C12 UNL     1      -0.616  -0.058 -11.200  1.00  0.00     0.001 C 
HETATM   14  C13 UNL     1      -1.506   0.344 -12.367  1.00  0.00     0.005 C 
HETATM   15  C14 UNL     1      -0.732   0.765 -13.616  1.00  0.00     0.045 C 
HETATM   16  O2  UNL     1      -0.454   2.144 -15.980  1.00  0.00    -0.259 OA
ENDROOT
BRANCH   5  17
HETATM   17  O3  UNL     1       1.370   8.397 -13.271  1.00  0.00    -0.221 OA
BRANCH  17  18
HETATM   18  S1  UNL     1       2.902   8.862 -13.564  1.00  0.00     0.340 S 
HETATM   19  O4  UNL     1       3.754   7.693 -13.522  1.00  0.00    -0.181 OA
HETATM   20  O5  UNL     1       2.944   9.779 -14.679  1.00  0.00    -0.181 OA
BRANCH  18  21
HETATM   21  N1  UNL     1       3.373   9.766 -12.225  1.00  0.00    -0.206 NA
HETATM   22  H14 UNL     1       4.227   9.354 -11.849  1.00  0.00     0.138 HD
HETATM   23  H15 UNL     1       3.509  10.734 -12.523  1.00  0.00     0.138 HD
ENDBRANCH  18  21
ENDBRANCH  17  18
ENDBRANCH   5  17
TORSDOF 3
ENDMDL
MODEL 2
REMARK VINA RESULT:      -7.7      3.552      4.754
REMARK  3 active torsions:
REMARK  status: ('A' for Active; 'I' for Inactive)
REMARK    1  A    between atoms: C5_5  and  O3_17 
REMARK    2  A    between atoms: O3_17  and  S1_18 
REMARK    3  A    between atoms: S1_18  and  N1_19 
ROOT
HETATM    1  C1  UNL     1       1.517   5.955 -12.018  1.00  0.00     0.017 A 
HETATM    2  C2  UNL     1       0.747   4.825 -12.331  1.00  0.00     0.005 A 
HETATM    3  C3  UNL     1       0.062   4.221 -11.280  1.00  0.00     0.093 A 
HETATM    4  C4  UNL     1       0.096   4.711  -9.970  1.00  0.00     0.076 A 
HETATM    5  C5  UNL     1       0.871   5.828  -9.686  1.00  0.00     0.093 A 
HETATM    6  C6  UNL     1       1.569   6.459 -10.711  1.00  0.00     0.039 A 
HETATM    7  C7  UNL     1       0.643   4.240 -13.692  1.00  0.00    -0.033 A 
HETATM    8  C8  UNL     1      -0.000   3.059 -13.839  1.00  0.00     0.025 A 
HETATM    9  C9  UNL     1      -0.733   2.423 -12.700  1.00  0.00     0.295 A 
HETATM   10  O1  UNL     1      -0.702   3.066 -11.478  1.00  0.00    -0.274 OA
HETATM   11  C10 UNL     1       1.255   5.048 -14.827  1.00  0.00     0.040 C 
HETATM   12  C11 UNL     1       0.681   4.825 -16.229  1.00  0.00     0.005 C 
HETATM   13  C12 UNL     1       1.172   3.554 -16.905  1.00  0.00     0.001 C 
HETATM   14  C13 UNL     1       1.168   2.322 -16.014  1.00  0.00     0.005 C 
HETATM   15  C14 UNL     1      -0.056   2.221 -15.105  1.00  0.00     0.045 C 
HETATM   16  O2  UNL     1      -1.365   1.379 -12.836  1.00  0.00    -0.259 OA
ENDROOT
BRANCH   5  17
HETATM   17  O3  UNL     1       0.944   6.393  -8.443  1.00  0.00    -0.221 OA
BRANCH  17  18
HETATM   18  S1  UNL     1      -0.351   7.115  -7.771  1.00  0.00     0.340 S 
HETATM   19  O4  UNL     1      -1.268   7.489  -8.825  1.00  0.00    -0.181 OA
HETATM   20  O5  UNL     1      -0.800   6.369  -6.618  1.00  0.00    -0.181 OA
BRANCH  18  21
HETATM   21  N1  UNL     1       0.204   8.583  -7.163  1.00  0.00    -0.206 NA
HETATM   22  H14 UNL     1      -0.607   9.146  -6.907  1.00  0.00     0.138 HD
HETATM   23  H15 UNL     1       0.810   8.391  -6.363  1.00  0.00     0.138 HD
ENDBRANCH  18  21
ENDBRANCH  17  18
ENDBRANCH   5  17
TORSDOF 3
ENDMDL
