MODEL 1
REMARK VINA RESULT:      -7.0      0.000      0.000
REMARK  10 active torsions:
REMARK  status: ('A' for Active; 'I' for Inactive)
REMARK    1  A    between atoms: C3_3  and  C15_19 
REMARK    2  A    between atoms: C6_6  and  C7_7 
REMARK    3  A    between atoms: C7_7  and  O1_8 
REMARK    4  A    between atoms: O1_8  and  N1_9 
REMARK    5  A    between atoms: N2_10  and  O2_11 
REMARK    6  A    between atoms: O2_11  and  C8_12 
REMARK    7  A    between atoms: C8_12  and  C9_13 
REMARK    8  A    between atoms: C12_16  and  C16_20 
REMARK    9  A    between atoms: C15_19  and  O4_22 
REMARK   10  A    between atoms: C16_20  and  O6_24 
ROOT
HETATM    1  N1  UNL     1      -0.718   6.341  -9.828  1.00  0.00     0.002 NA
HETATM    2  N2  UNL     1       0.339   6.861 -10.243  1.00  0.00     0.002 NA
ENDROOT
BRANCH   1   3
HETATM    3  O1  UNL     1      -0.639   4.972  -9.529  1.00  0.00    -0.233 OA
BRANCH   3   4
HETATM    4  C7  UNL     1      -1.646   4.298 -10.281  1.00  0.00     0.244 C 
BRANCH   4   5
HETATM    5  C6  UNL     1      -1.202   2.908 -10.684  1.00  0.00    -0.032 A 
HETATM    6  C1  UNL     1      -0.171   2.232 -10.010  1.00  0.00     0.010 A 
HETATM    7  C2  UNL     1       0.242   0.964 -10.427  1.00  0.00     0.019 A 
HETATM    8  C3  UNL     1      -0.357   0.359 -11.536  1.00  0.00     0.037 A 
HETATM    9  C4  UNL     1      -1.375   1.030 -12.222  1.00  0.00     0.019 A 
HETATM   10  C5  UNL     1      -1.790   2.296 -11.800  1.00  0.00     0.010 A 
BRANCH   8  11
HETATM   11  C15 UNL     1       0.060  -0.978 -12.023  1.00  0.00     0.176 C 
HETATM   12  O3  UNL     1       0.676  -1.811 -11.384  1.00  0.00    -0.646 OA
BRANCH  11  13
HETATM   13  O4  UNL     1      -0.309  -1.210 -13.295  1.00  0.00    -0.773 OA
HETATM   14  H13 UNL     1      -0.681  -0.355 -13.593  1.00  0.00     0.167 HD
ENDBRANCH  11  13
ENDBRANCH   8  11
ENDBRANCH   4   5
ENDBRANCH   3   4
ENDBRANCH   1   3
BRANCH   2  15
HETATM   15  O2  UNL     1       1.438   5.992 -10.357  1.00  0.00    -0.233 OA
BRANCH  15  16
HETATM   16  C8  UNL     1       2.148   6.296 -11.553  1.00  0.00     0.244 C 
BRANCH  16  17
HETATM   17  C9  UNL     1       1.565   5.513 -12.703  1.00  0.00    -0.032 A 
HETATM   18  C10 UNL     1       1.088   6.170 -13.847  1.00  0.00     0.010 A 
HETATM   19  C11 UNL     1       0.569   5.443 -14.922  1.00  0.00     0.019 A 
HETATM   20  C12 UNL     1       0.524   4.045 -14.867  1.00  0.00     0.037 A 
HETATM   21  C13 UNL     1       1.006   3.382 -13.732  1.00  0.00     0.019 A 
HETATM   22  C14 UNL     1       1.522   4.111 -12.659  1.00  0.00     0.010 A 
BRANCH  20  23
HETATM   23  C16 UNL     1      -0.005   3.228 -15.986  1.00  0.00     0.176 C 
HETATM   24  O5  UNL     1      -0.712   2.245 -15.880  1.00  0.00    -0.646 OA
BRANCH  23  25
HETATM   25  O6  UNL     1       0.380   3.685 -17.192  1.00  0.00    -0.773 OA
HETATM   26  H14 UNL     1       0.190   2.938 -17.796  1.00  0.00     0.167 HD
ENDBRANCH  23  25
ENDBRANCH  20  23
ENDBRANCH  16  17
ENDBRANCH  15  16
ENDBRANCH   2  15
TORSDOF 10
ENDMDL
MODEL 2
REMARK VINA RESULT:      -7.0      0.358      1.430
REMARK  10 active torsions:
REMARK  status: ('A' for Active; 'I' for Inactive)
REMARK    1  A    between atoms: C3_3  and  C15_19 
REMARK    2  A    between atoms: C6_6  and  C7_7 
REMARK    3  A    between atoms: C7_7  and  O1_8 
REMARK    4  A    between atoms: O1_8  and  N1_9 
REMARK    5  A    between atoms: N2_10  and  O2_11 
REMARK    6  A    between atoms: O2_11  and  C8_12 
REMARK    7  A    between atoms: C8_12  and  C9_13 
REMARK    8  A    between atoms: C12_16  and  C16_20 
REMARK    9  A    between atoms: C15_19  and  O4_22 
REMARK   10  A    between atoms: C16_20  and  O6_24 
ROOT
HETATM    1  N1  UNL     1      -0.201   6.354  -9.736  1.00  0.00     0.002 NA
HETATM    2  N2  UNL     1       0.732   6.971 -10.294  1.00  0.00     0.002 NA
ENDROOT
BRANCH   1   3
HETATM    3  O1  UNL     1       0.029   4.987  -9.515  1.00  0.00    -0.233 OA
BRANCH   3   4
HETATM    4  C7  UNL     1      -1.161   4.279  -9.856  1.00  0.00     0.244 C 
BRANCH   4   5
HETATM    5  C6  UNL     1      -0.848   2.929 -10.465  1.00  0.00    -0.032 A 
HETATM    6  C1  UNL     1      -1.647   2.365 -11.473  1.00  0.00     0.010 A 
HETATM    7  C2  UNL     1      -1.354   1.100 -11.992  1.00  0.00     0.019 A 
HETATM    8  C3  UNL     1      -0.269   0.372 -11.497  1.00  0.00     0.037 A 
HETATM    9  C4  UNL     1       0.524   0.919 -10.482  1.00  0.00     0.019 A 
HETATM   10  C5  UNL     1       0.233   2.186  -9.970  1.00  0.00     0.010 A 
BRANCH   8  11
HETATM   11  C15 UNL     1       0.069  -0.980 -12.005  1.00  0.00     0.176 C 
HETATM   12  O3  UNL     1       0.707  -1.827 -11.409  1.00  0.00    -0.646 OA
BRANCH  11  13
HETATM   13  O4  UNL     1      -0.405  -1.207 -13.243  1.00  0.00    -0.773 OA
HETATM   14  H13 UNL     1      -0.520  -0.311 -13.621  1.00  0.00     0.167 HD
ENDBRANCH  11  13
ENDBRANCH   8  11
ENDBRANCH   4   5
ENDBRANCH   3   4
ENDBRANCH   1   3
BRANCH   2  15
HETATM   15  O2  UNL     1       1.858   6.198 -10.623  1.00  0.00    -0.233 OA
BRANCH  15  16
HETATM   16  C8  UNL     1       2.337   6.597 -11.904  1.00  0.00     0.244 C 
BRANCH  16  17
HETATM   17  C9  UNL     1       1.748   5.704 -12.966  1.00  0.00    -0.032 A 
HETATM   18  C10 UNL     1       1.535   4.339 -12.716  1.00  0.00     0.010 A 
HETATM   19  C11 UNL     1       0.967   3.516 -13.692  1.00  0.00     0.019 A 
HETATM   20  C12 UNL     1       0.599   4.050 -14.933  1.00  0.00     0.037 A 
HETATM   21  C13 UNL     1       0.800   5.412 -15.186  1.00  0.00     0.019 A 
HETATM   22  C14 UNL     1       1.370   6.232 -14.210  1.00  0.00     0.010 A 
BRANCH  20  23
HETATM   23  C16 UNL     1      -0.018   3.222 -15.996  1.00  0.00     0.176 C 
HETATM   24  O5  UNL     1      -0.762   2.275 -15.822  1.00  0.00    -0.646 OA
BRANCH  23  25
HETATM   25  O6  UNL     1       0.326   3.620 -17.234  1.00  0.00    -0.773 OA
HETATM   26  H14 UNL     1      -0.528   3.662 -17.712  1.00  0.00     0.167 HD
ENDBRANCH  23  25
ENDBRANCH  20  23
ENDBRANCH  16  17
ENDBRANCH  15  16
ENDBRANCH   2  15
TORSDOF 10
ENDMDL
