MODEL 1
REMARK VINA RESULT:      -9.4      0.000      0.000
REMARK  UMBRALISIB
REMARK  7 active torsions:
REMARK  status: ('A' for Active; 'I' for Inactive)
REMARK    1  A    between atoms: O_6  and  C_36 
REMARK    2  A    between atoms: O_6  and  C_40 
REMARK    3  A    between atoms: N_7  and  C_12 
REMARK    4  A    between atoms: N_11  and  C_24 
REMARK    5  A    between atoms: C_12  and  C_13 
REMARK    6  A    between atoms: C_15  and  C_23 
REMARK    7  A    between atoms: C_18  and  C_22 
ROOT
ATOM      1  F           0       1.588   3.344 -17.576  0.00  0.00    -0.204 F 
ATOM      2  O           0      -0.532   3.872 -12.533  0.00  0.00    -0.309 OA
ATOM      3  O           0      -0.402   0.152 -14.175  0.00  0.00    -0.286 OA
ATOM      4  C           0      -1.012   2.772 -11.834  0.00  0.00     0.103 A 
ATOM      5  C           0      -1.002   1.509 -12.315  0.00  0.00     0.060 A 
ATOM      6  C           0      -0.443   1.270 -13.677  0.00  0.00     0.199 A 
ATOM      7  C           0       0.059   2.445 -14.400  0.00  0.00     0.064 A 
ATOM      8  C           0      -0.013   3.691 -13.787  0.00  0.00     0.103 A 
ATOM      9  C           0       0.599   2.321 -15.682  0.00  0.00     0.035 A 
ATOM     10  C           0       0.456   4.825 -14.451  0.00  0.00     0.027 A 
ATOM     11  C           0       1.069   3.455 -16.345  0.00  0.00     0.140 A 
ATOM     12  C           0       0.997   4.706 -15.732  0.00  0.00     0.032 A 
ENDROOT
BRANCH   5  13
ATOM     13  C           0      -1.516   0.383 -11.547  0.00  0.00     0.007 A 
ATOM     14  C           0      -0.638  -0.420 -10.816  0.00  0.00     0.030 A 
ATOM     15  C           0      -1.130  -1.498 -10.080  0.00  0.00     0.140 A 
ATOM     16  F           0      -0.287  -2.268  -9.380  0.00  0.00    -0.204 F 
ATOM     17  C           0      -2.498  -1.774 -10.074  0.00  0.00     0.030 A 
ATOM     18  C           0      -3.374  -0.972 -10.805  0.00  0.00     0.002 A 
ATOM     19  C           0      -2.883   0.107 -11.541  0.00  0.00     0.000 A 
ENDBRANCH   5  13
BRANCH   4  20
ATOM     20  C           0      -1.542   3.169 -10.485  0.00  0.00     0.152 C 
ATOM     21  C           0      -2.096   4.595 -10.506  0.00  0.00     0.034 C 
BRANCH  20  22
ATOM     22  N           0      -0.500   2.984  -9.400  0.00  0.00    -0.230 N 
ATOM     23  N           0      -0.645   1.990  -8.503  0.00  0.00    -0.168 NA
ATOM     24  C           0       0.426   2.125  -7.713  0.00  0.00     0.107 A 
ATOM     25  C           0       1.254   3.196  -8.099  0.00  0.00     0.088 A 
ATOM     26  C           0       0.620   3.735  -9.204  0.00  0.00     0.166 A 
ATOM     27  C           0       2.440   3.798  -7.693  0.00  0.00     0.140 A 
ATOM     28  N           0       1.025   4.786  -9.935  0.00  0.00    -0.205 NA
ATOM     29  C           0       2.181   5.286  -9.448  0.00  0.00     0.202 A 
ATOM     30  N           0       2.907   4.864  -8.385  0.00  0.00    -0.207 NA
BRANCH  24  31
ATOM     31  C           0       0.620   1.220  -6.608  0.00  0.00     0.022 A 
ATOM     32  C           0      -0.003   1.469  -5.385  0.00  0.00     0.033 A 
ATOM     33  C           0       0.186   0.594  -4.316  0.00  0.00     0.162 A 
ATOM     34  F           0      -0.414   0.839  -3.143  0.00  0.00    -0.202 F 
ATOM     35  C           0       0.997  -0.531  -4.470  0.00  0.00     0.121 A 
ATOM     36  C           0       1.619  -0.780  -5.693  0.00  0.00     0.026 A 
ATOM     37  C           0       1.431   0.096  -6.762  0.00  0.00     0.004 A 
BRANCH  35  38
ATOM     38  O           0       1.180  -1.387  -3.427  0.00  0.00    -0.331 OA
BRANCH  38  39
ATOM     39  C           0       1.151  -2.782  -3.721  0.00  0.00     0.122 C 
ATOM     40  C           0      -0.284  -3.281  -3.641  0.00  0.00     0.033 C 
ATOM     41  C           0       2.061  -3.518  -2.750  0.00  0.00     0.033 C 
ENDBRANCH  38  39
ENDBRANCH  35  38
ENDBRANCH  24  31
BRANCH  27  42
ATOM     42  N           0       3.158   3.322  -6.581  0.00  0.00    -0.383 N 
ATOM     43  H           0       3.954   3.822  -6.216  0.00  0.00     0.157 HD
ATOM     44  H           0       2.862   2.459  -6.145  0.00  0.00     0.157 HD
ENDBRANCH  27  42
ENDBRANCH  20  22
ENDBRANCH   4  20
TORSDOF 7
ENDMDL
MODEL 2
REMARK VINA RESULT:      -9.0      3.374      7.181
REMARK  UMBRALISIB
REMARK  7 active torsions:
REMARK  status: ('A' for Active; 'I' for Inactive)
REMARK    1  A    between atoms: O_6  and  C_36 
REMARK    2  A    between atoms: O_6  and  C_40 
REMARK    3  A    between atoms: N_7  and  C_12 
REMARK    4  A    between atoms: N_11  and  C_24 
REMARK    5  A    between atoms: C_12  and  C_13 
REMARK    6  A    between atoms: C_15  and  C_23 
REMARK    7  A    between atoms: C_18  and  C_22 
ROOT
ATOM      1  F           0       4.494   3.871  -5.369  0.00  0.00    -0.204 F 
ATOM      2  O           0       0.229   3.624  -8.826  0.00  0.00    -0.309 OA
ATOM      3  O           0       3.520   5.713  -9.992  0.00  0.00    -0.286 OA
ATOM      4  C           0       0.267   4.255 -10.063  0.00  0.00     0.103 A 
ATOM      5  C           0       1.323   4.966 -10.516  0.00  0.00     0.060 A 
ATOM      6  C           0       2.528   5.085  -9.645  0.00  0.00     0.199 A 
ATOM      7  C           0       2.468   4.412  -8.342  0.00  0.00     0.064 A 
ATOM      8  C           0       1.316   3.714  -7.999  0.00  0.00     0.103 A 
ATOM      9  C           0       3.548   4.469  -7.456  0.00  0.00     0.035 A 
ATOM     10  C           0       1.233   3.065  -6.766  0.00  0.00     0.027 A 
ATOM     11  C           0       3.464   3.819  -6.224  0.00  0.00     0.140 A 
ATOM     12  C           0       2.308   3.119  -5.878  0.00  0.00     0.032 A 
ENDROOT
BRANCH   5  13
ATOM     13  C           0       1.320   5.611 -11.821  0.00  0.00     0.007 A 
ATOM     14  C           0       1.824   4.935 -12.934  0.00  0.00     0.030 A 
ATOM     15  C           0       1.821   5.553 -14.185  0.00  0.00     0.140 A 
ATOM     16  F           0       2.306   4.905 -15.252  0.00  0.00    -0.204 F 
ATOM     17  C           0       1.314   6.846 -14.324  0.00  0.00     0.030 A 
ATOM     18  C           0       0.811   7.521 -13.212  0.00  0.00     0.002 A 
ATOM     19  C           0       0.813   6.903 -11.961  0.00  0.00     0.000 A 
ENDBRANCH   5  13
BRANCH   4  20
ATOM     20  C           0      -1.013   4.047 -10.823  0.00  0.00     0.152 C 
ATOM     21  C           0      -2.230   4.388  -9.960  0.00  0.00     0.034 C 
BRANCH  20  22
ATOM     22  N           0      -1.102   2.646 -11.394  0.00  0.00    -0.230 N 
ATOM     23  N           0      -1.477   1.627 -10.598  0.00  0.00    -0.168 NA
ATOM     24  C           0      -1.442   0.567 -11.413  0.00  0.00     0.107 A 
ATOM     25  C           0      -1.048   0.900 -12.723  0.00  0.00     0.088 A 
ATOM     26  C           0      -0.834   2.266 -12.676  0.00  0.00     0.166 A 
ATOM     27  C           0      -0.838   0.268 -13.943  0.00  0.00     0.140 A 
ATOM     28  N           0      -0.441   3.058 -13.687  0.00  0.00    -0.205 NA
ATOM     29  C           0      -0.269   2.336 -14.815  0.00  0.00     0.202 A 
ATOM     30  N           0      -0.440   1.006 -15.007  0.00  0.00    -0.207 NA
BRANCH  24  31
ATOM     31  C           0      -1.786  -0.738 -10.906  0.00  0.00     0.022 A 
ATOM     32  C           0      -0.848  -1.475 -10.183  0.00  0.00     0.033 A 
ATOM     33  C           0      -1.181  -2.738  -9.693  0.00  0.00     0.162 A 
ATOM     34  F           0      -0.276  -3.442  -8.999  0.00  0.00    -0.202 F 
ATOM     35  C           0      -2.453  -3.264  -9.927  0.00  0.00     0.121 A 
ATOM     36  C           0      -3.390  -2.527 -10.650  0.00  0.00     0.026 A 
ATOM     37  C           0      -3.056  -1.264 -11.140  0.00  0.00     0.004 A 
BRANCH  35  38
ATOM     38  O           0      -2.779  -4.496  -9.448  0.00  0.00    -0.331 OA
BRANCH  38  39
ATOM     39  C           0      -2.160  -5.619 -10.071  0.00  0.00     0.122 C 
ATOM     40  C           0      -3.108  -6.200 -11.110  0.00  0.00     0.033 C 
ATOM     41  C           0      -1.790  -6.641  -9.008  0.00  0.00     0.033 C 
ENDBRANCH  38  39
ENDBRANCH  35  38
ENDBRANCH  24  31
BRANCH  27  42
ATOM     42  N           0      -1.030  -1.118 -14.091  0.00  0.00    -0.383 N 
ATOM     43  H           0      -0.364  -1.691 -14.586  0.00  0.00     0.157 HD
ATOM     44  H           0      -1.857  -1.539 -13.689  0.00  0.00     0.157 HD
ENDBRANCH  27  42
ENDBRANCH  20  22
ENDBRANCH   4  20
TORSDOF 7
ENDMDL
