MODEL 1
REMARK VINA RESULT:      -7.6      0.000      0.000
REMARK  3 active torsions:
REMARK  status: ('A' for Active; 'I' for Inactive)
REMARK    1  A    between atoms: C6_7  and  S1_11 
REMARK    2  A    between atoms: C10_15  and  C11_16 
REMARK    3  A    between atoms: C11_16  and  N3_17 
REMARK       I    between atoms: N3_17  and  C12_18 
REMARK       I    between atoms: C12_18  and  N4_19 
ROOT
HETATM    1  S1  UNL     1       1.829   5.743 -11.923  1.00  0.00     0.242 SA
HETATM    2  N2  UNL     1       0.678   6.652 -11.013  1.00  0.00    -0.214 N 
HETATM    3  O1  UNL     1       2.343   4.667 -11.010  1.00  0.00    -0.206 OA
HETATM    4  O2  UNL     1       2.998   6.581 -12.329  1.00  0.00    -0.206 OA
HETATM    5  C10 UNL     1      -0.393   5.766 -10.529  1.00  0.00     0.124 A 
HETATM    6 CL1  UNL     1       0.329   6.568 -11.595  1.00  0.00    -0.145 Cl
HETATM    7 CL2  UNL     1       0.329   6.571 -11.587  1.00  0.00    -0.145 Cl
HETATM    8  H7  UNL     1       0.138   7.341 -11.620  1.00  0.00     0.140 HD
HETATM    9  H16 UNL     1       0.302   6.098 -12.877  1.00  0.00     0.145 HD
HETATM   10  H17 UNL     1       0.301   6.095 -12.885  1.00  0.00     0.145 HD
ENDROOT
BRANCH   1  11
HETATM   11  C6  UNL     1       1.158   4.995 -13.344  1.00  0.00     0.085 A 
HETATM   12  C3  UNL     1       0.564   3.753 -13.338  1.00  0.00    -0.000 A 
HETATM   13  C2  UNL     1       0.413   3.040 -12.171  1.00  0.00     0.033 A 
HETATM   14  C4  UNL     1       0.074   3.157 -14.495  1.00  0.00    -0.007 A 
HETATM   15  C1  UNL     1      -0.180   1.807 -12.104  1.00  0.00     0.117 A 
HETATM   16  N1  UNL     1      -0.637   1.266 -13.243  1.00  0.00    -0.272 NA
HETATM   17  C5  UNL     1      -0.524   1.916 -14.437  1.00  0.00     0.128 A 
HETATM   18  C9  UNL     1       0.172   3.810 -15.705  1.00  0.00     0.014 A 
HETATM   19  C8  UNL     1       0.763   5.056 -15.728  1.00  0.00     0.002 A 
HETATM   20  C7  UNL     1       1.238   5.621 -14.576  1.00  0.00     0.026 A 
ENDBRANCH   1  11
BRANCH   5  21
HETATM   21  C11 UNL     1      -1.356   6.579  -9.749  1.00  0.00     0.153 C 
BRANCH  21  22
HETATM   22  N3  UNL     1      -1.398   6.377  -8.343  1.00  0.00    -0.224 N 
HETATM   23  C12 UNL     1      -1.032   7.427  -7.465  1.00  0.00     0.686 C 
HETATM   24  N4  UNL     1      -0.255   7.214  -6.295  1.00  0.00    -0.234 N 
HETATM   25  N5  UNL     1      -1.423   8.654  -7.712  1.00  0.00    -0.118 NA
HETATM   26  H13 UNL     1      -0.769   7.199  -5.386  1.00  0.00     0.174 HD
HETATM   27  H14 UNL     1       0.776   7.085  -6.383  1.00  0.00     0.174 HD
HETATM   28  H15 UNL     1      -1.181   9.446  -7.103  1.00  0.00     0.206 HD
HETATM   29  H12 UNL     1      -1.687   5.481  -7.878  1.00  0.00     0.177 HD
ENDBRANCH  21  22
ENDBRANCH   5  21
TORSDOF 3
ENDMDL
MODEL 2
REMARK VINA RESULT:      -7.4      2.575      5.731
REMARK  3 active torsions:
REMARK  status: ('A' for Active; 'I' for Inactive)
REMARK    1  A    between atoms: C6_7  and  S1_11 
REMARK    2  A    between atoms: C10_15  and  C11_16 
REMARK    3  A    between atoms: C11_16  and  N3_17 
REMARK       I    between atoms: N3_17  and  C12_18 
REMARK       I    between atoms: C12_18  and  N4_19 
ROOT
HETATM    1  S1  UNL     1       1.170   4.002 -11.575  1.00  0.00     0.242 SA
HETATM    2  N2  UNL     1       1.373   4.794 -13.095  1.00  0.00    -0.214 N 
HETATM    3  O1  UNL     1       2.476   4.135 -10.845  1.00  0.00    -0.206 OA
HETATM    4  O2  UNL     1       0.900   2.542 -11.745  1.00  0.00    -0.206 OA
HETATM    5  C10 UNL     1       1.757   6.199 -12.882  1.00  0.00     0.124 A 
HETATM    6 CL1  UNL     1       0.767   5.051 -12.908  1.00  0.00    -0.145 Cl
HETATM    7 CL2  UNL     1       0.773   5.050 -12.913  1.00  0.00    -0.145 Cl
HETATM    8  H7  UNL     1       0.453   4.894 -13.623  1.00  0.00     0.140 HD
HETATM    9  H16 UNL     1      -0.259   5.070 -12.006  1.00  0.00     0.145 HD
HETATM   10  H17 UNL     1      -0.265   5.070 -12.001  1.00  0.00     0.145 HD
ENDROOT
BRANCH   1  11
HETATM   11  C6  UNL     1      -0.091   4.692 -10.593  1.00  0.00     0.085 A 
HETATM   12  C3  UNL     1       0.131   5.678  -9.660  1.00  0.00    -0.000 A 
HETATM   13  C2  UNL     1       1.379   6.228  -9.484  1.00  0.00     0.033 A 
HETATM   14  C4  UNL     1      -0.886   6.183  -8.856  1.00  0.00    -0.007 A 
HETATM   15  C1  UNL     1       1.655   7.219  -8.579  1.00  0.00     0.117 A 
HETATM   16  N1  UNL     1       0.647   7.677  -7.822  1.00  0.00    -0.272 NA
HETATM   17  C5  UNL     1      -0.618   7.181  -7.942  1.00  0.00     0.128 A 
HETATM   18  C9  UNL     1      -2.170   5.698  -8.977  1.00  0.00     0.014 A 
HETATM   19  C8  UNL     1      -2.409   4.710  -9.910  1.00  0.00     0.002 A 
HETATM   20  C7  UNL     1      -1.392   4.229 -10.687  1.00  0.00     0.026 A 
ENDBRANCH   1  11
BRANCH   5  21
HETATM   21  C11 UNL     1       1.927   6.843 -14.206  1.00  0.00     0.153 C 
BRANCH  21  22
HETATM   22  N3  UNL     1       1.878   8.262 -14.257  1.00  0.00    -0.224 N 
HETATM   23  C12 UNL     1       2.974   9.026 -13.785  1.00  0.00     0.686 C 
HETATM   24  N4  UNL     1       2.811  10.215 -13.023  1.00  0.00    -0.234 N 
HETATM   25  N5  UNL     1       4.201   8.651 -14.058  1.00  0.00    -0.118 NA
HETATM   26  H13 UNL     1       2.941  11.119 -13.530  1.00  0.00     0.174 HD
HETATM   27  H14 UNL     1       2.575  10.144 -12.010  1.00  0.00     0.174 HD
HETATM   28  H15 UNL     1       5.025   9.174 -13.736  1.00  0.00     0.206 HD
HETATM   29  H12 UNL     1       1.068   8.818 -14.627  1.00  0.00     0.177 HD
ENDBRANCH  21  22
ENDBRANCH   5  21
TORSDOF 3
ENDMDL
