MODEL 1
REMARK VINA RESULT:      -8.3      0.000      0.000
REMARK  5 active torsions:
REMARK  status: ('A' for Active; 'I' for Inactive)
REMARK    1  A    between atoms: C1_1  and  S1_7 
REMARK    2  A    between atoms: C4_4  and  N2_11 
REMARK    3  A    between atoms: S1_7  and  N1_8 
REMARK    4  A    between atoms: C7_12  and  C10_16 
REMARK    5  A    between atoms: C9_14  and  C17_23 
ROOT
HETATM    1  N2  UNL     1       1.105   4.320 -12.592  1.00  0.00    -0.233 N 
HETATM    2  C7  UNL     1       1.130   5.240 -13.642  1.00  0.00     0.071 A 
HETATM    3  C8  UNL     1       0.748   4.535 -14.770  1.00  0.00     0.070 A 
HETATM    4  C9  UNL     1       0.420   3.234 -14.332  1.00  0.00     0.163 A 
HETATM    5  N3  UNL     1       0.596   3.124 -13.006  1.00  0.00    -0.162 NA
ENDROOT
BRANCH   1   6
HETATM    6  C4  UNL     1       1.537   4.441 -11.231  1.00  0.00     0.059 A 
HETATM    7  C3  UNL     1       2.679   3.726 -10.819  1.00  0.00     0.033 A 
HETATM    8  C2  UNL     1       3.140   3.812  -9.503  1.00  0.00     0.027 A 
HETATM    9  C1  UNL     1       2.471   4.631  -8.593  1.00  0.00     0.074 A 
HETATM   10  C6  UNL     1       1.342   5.351  -8.984  1.00  0.00     0.027 A 
HETATM   11  C5  UNL     1       0.882   5.264 -10.304  1.00  0.00     0.033 A 
BRANCH   9  12
HETATM   12  S1  UNL     1       3.060   4.733  -6.926  1.00  0.00     0.239 S 
HETATM   13  O1  UNL     1       4.400   4.199  -6.884  1.00  0.00    -0.206 OA
HETATM   14  O2  UNL     1       2.014   4.280  -6.038  1.00  0.00    -0.206 OA
BRANCH  12  15
HETATM   15  N1  UNL     1       3.153   6.399  -6.701  1.00  0.00    -0.225 NA
HETATM   16  H5  UNL     1       2.760   6.866  -7.522  1.00  0.00     0.136 HD
HETATM   17  H6  UNL     1       4.093   6.728  -6.487  1.00  0.00     0.136 HD
ENDBRANCH  12  15
ENDBRANCH   9  12
ENDBRANCH   1   6
BRANCH   2  18
HETATM   18  C10 UNL     1       1.411   6.669 -13.568  1.00  0.00    -0.007 A 
HETATM   19  C11 UNL     1       0.366   7.601 -13.550  1.00  0.00     0.014 A 
HETATM   20  C12 UNL     1       0.640   8.969 -13.491  1.00  0.00     0.007 A 
HETATM   21  C13 UNL     1       1.963   9.429 -13.473  1.00  0.00    -0.062 A 
HETATM   22  C14 UNL     1       3.007   8.497 -13.493  1.00  0.00     0.007 A 
HETATM   23  C16 UNL     1       2.253  10.898 -13.380  1.00  0.00     0.048 C 
HETATM   24  C15 UNL     1       2.733   7.128 -13.552  1.00  0.00     0.014 A 
ENDBRANCH   2  18
BRANCH   4  25
HETATM   25  C17 UNL     1      -0.093   2.102 -15.182  1.00  0.00     0.436 C 
HETATM   26  F1  UNL     1      -0.528   1.052 -14.437  1.00  0.00    -0.165 F 
HETATM   27  F2  UNL     1       0.849   1.622 -16.036  1.00  0.00    -0.165 F 
HETATM   28  F3  UNL     1      -1.148   2.489 -15.953  1.00  0.00    -0.165 F 
ENDBRANCH   4  25
TORSDOF 5
ENDMDL
MODEL 2
REMARK VINA RESULT:      -8.3      1.355      1.514
REMARK  5 active torsions:
REMARK  status: ('A' for Active; 'I' for Inactive)
REMARK    1  A    between atoms: C1_1  and  S1_7 
REMARK    2  A    between atoms: C4_4  and  N2_11 
REMARK    3  A    between atoms: S1_7  and  N1_8 
REMARK    4  A    between atoms: C7_12  and  C10_16 
REMARK    5  A    between atoms: C9_14  and  C17_23 
ROOT
HETATM    1  N2  UNL     1       1.279   4.490 -12.976  1.00  0.00    -0.233 N 
HETATM    2  C7  UNL     1       1.576   5.621 -13.739  1.00  0.00     0.071 A 
HETATM    3  C8  UNL     1       1.443   5.231 -15.060  1.00  0.00     0.070 A 
HETATM    4  C9  UNL     1       0.981   3.897 -15.034  1.00  0.00     0.163 A 
HETATM    5  N3  UNL     1       0.842   3.470 -13.769  1.00  0.00    -0.162 NA
ENDROOT
BRANCH   1   6
HETATM    6  C4  UNL     1       1.388   4.257 -11.566  1.00  0.00     0.059 A 
HETATM    7  C3  UNL     1       2.523   3.578 -11.080  1.00  0.00     0.033 A 
HETATM    8  C2  UNL     1       2.675   3.327  -9.714  1.00  0.00     0.027 A 
HETATM    9  C1  UNL     1       1.700   3.772  -8.822  1.00  0.00     0.074 A 
HETATM   10  C6  UNL     1       0.572   4.451  -9.284  1.00  0.00     0.027 A 
HETATM   11  C5  UNL     1       0.422   4.701 -10.653  1.00  0.00     0.033 A 
BRANCH   9  12
HETATM   12  S1  UNL     1       1.899   3.448  -7.091  1.00  0.00     0.239 S 
HETATM   13  O1  UNL     1       1.661   2.043  -6.863  1.00  0.00    -0.206 OA
HETATM   14  O2  UNL     1       1.221   4.484  -6.346  1.00  0.00    -0.206 OA
BRANCH  12  15
HETATM   15  N1  UNL     1       3.544   3.743  -6.879  1.00  0.00    -0.225 NA
HETATM   16  H5  UNL     1       3.862   3.250  -6.042  1.00  0.00     0.136 HD
HETATM   17  H6  UNL     1       3.778   4.734  -6.852  1.00  0.00     0.136 HD
ENDBRANCH  12  15
ENDBRANCH   9  12
ENDBRANCH   1   6
BRANCH   2  18
HETATM   18  C10 UNL     1       1.878   6.965 -13.259  1.00  0.00    -0.007 A 
HETATM   19  C11 UNL     1       1.461   8.090 -13.981  1.00  0.00     0.014 A 
HETATM   20  C12 UNL     1       1.764   9.375 -13.523  1.00  0.00     0.007 A 
HETATM   21  C13 UNL     1       2.507   9.556 -12.351  1.00  0.00    -0.062 A 
HETATM   22  C14 UNL     1       2.926   8.430 -11.631  1.00  0.00     0.007 A 
HETATM   23  C16 UNL     1       2.805  10.937 -11.847  1.00  0.00     0.048 C 
HETATM   24  C15 UNL     1       2.624   7.145 -12.088  1.00  0.00     0.014 A 
ENDBRANCH   2  18
BRANCH   4  25
HETATM   25  C17 UNL     1       0.643   3.041 -16.225  1.00  0.00     0.436 C 
HETATM   26  F1  UNL     1       1.186   1.798 -16.139  1.00  0.00    -0.165 F 
HETATM   27  F2  UNL     1       1.069   3.583 -17.396  1.00  0.00    -0.165 F 
HETATM   28  F3  UNL     1      -0.702   2.863 -16.352  1.00  0.00    -0.165 F 
ENDBRANCH   4  25
TORSDOF 5
ENDMDL
