MODEL 1
REMARK VINA RESULT:      -7.5      0.000      0.000
REMARK  9 active torsions:
REMARK  status: ('A' for Active; 'I' for Inactive)
REMARK    1  A    between atoms: C1_1  and  C2_2 
REMARK       I    between atoms: C1_1  and  N1_4 
REMARK    2  A    between atoms: N1_4  and  C3_5 
REMARK    3  A    between atoms: C3_5  and  C4_6 
REMARK    4  A    between atoms: C3_5  and  C5_7 
REMARK    5  A    between atoms: C5_7  and  O2_8 
REMARK    6  A    between atoms: N3_14  and  C15_21 
REMARK    7  A    between atoms: C15_21  and  C16_22 
REMARK    8  A    between atoms: C16_22  and  C17_23 
REMARK    9  A    between atoms: C17_23  and  C18_24 
ROOT
HETATM    1  C2  UNL     1       0.136   3.323 -12.414  1.00  0.00     0.157 A 
HETATM    2  N2  UNL     1       0.805   4.319 -11.805  1.00  0.00    -0.166 NA
HETATM    3  N3  UNL     1       1.381   5.004 -12.806  1.00  0.00    -0.268 N 
HETATM    4  C9  UNL     1       1.105   4.512 -14.056  1.00  0.00     0.065 A 
HETATM    5  C10 UNL     1       0.281   3.411 -13.838  1.00  0.00     0.028 A 
HETATM    6  C11 UNL     1       1.486   4.933 -15.338  1.00  0.00     0.032 A 
HETATM    7  C12 UNL     1       1.003   4.205 -16.429  1.00  0.00     0.002 A 
HETATM    8  C13 UNL     1       0.168   3.108 -16.245  1.00  0.00     0.001 A 
HETATM    9  C14 UNL     1      -0.206   2.702 -14.958  1.00  0.00     0.016 A 
ENDROOT
BRANCH   1  10
HETATM   10  C1  UNL     1      -0.616   2.331 -11.626  1.00  0.00     0.273 C 
HETATM   11  O1  UNL     1      -1.586   2.615 -10.927  1.00  0.00    -0.266 OA
HETATM   12  N1  UNL     1      -0.131   1.041 -11.698  1.00  0.00    -0.341 N 
HETATM   13  H1  UNL     1       0.770   0.875 -12.135  1.00  0.00     0.163 HD
BRANCH  12  14
HETATM   14  C3  UNL     1      -0.700  -0.050 -10.902  1.00  0.00     0.188 C 
BRANCH  14  15
HETATM   15  C4  UNL     1      -1.641  -0.931 -11.755  1.00  0.00     0.010 C 
HETATM   16  C6  UNL     1      -1.331  -0.825 -13.249  1.00  0.00     0.012 C 
HETATM   17  C7  UNL     1      -3.125  -0.641 -11.507  1.00  0.00     0.012 C 
ENDBRANCH  14  15
BRANCH  14  18
HETATM   18  C5  UNL     1       0.475  -0.823 -10.292  1.00  0.00     0.281 C 
HETATM   19  O3  UNL     1       0.645  -2.030 -10.438  1.00  0.00    -0.263 OA
BRANCH  18  20
HETATM   20  O2  UNL     1       1.291   0.002  -9.584  1.00  0.00    -0.325 OA
HETATM   21  C8  UNL     1       0.793   0.347  -8.290  1.00  0.00     0.213 C 
ENDBRANCH  18  20
ENDBRANCH  14  18
ENDBRANCH  12  14
ENDBRANCH   1  10
BRANCH   3  22
HETATM   22  C15 UNL     1       2.185   6.169 -12.477  1.00  0.00     0.154 C 
BRANCH  22  23
HETATM   23  C16 UNL     1       1.311   7.376 -12.144  1.00  0.00     0.059 C 
BRANCH  23  24
HETATM   24  C17 UNL     1       1.020   8.246 -13.360  1.00  0.00     0.171 C 
HETATM   25  F1  UNL     1      -0.038   7.700 -14.024  1.00  0.00    -0.249 F 
BRANCH  24  26
HETATM   26  C18 UNL     1       2.190   8.375 -14.331  1.00  0.00     0.033 C 
HETATM   27  C19 UNL     1       2.679   9.812 -14.421  1.00  0.00     0.008 C 
ENDBRANCH  24  26
ENDBRANCH  23  24
ENDBRANCH  22  23
ENDBRANCH   3  22
TORSDOF 9
ENDMDL
MODEL 2
REMARK VINA RESULT:      -7.1      1.298      1.574
REMARK  9 active torsions:
REMARK  status: ('A' for Active; 'I' for Inactive)
REMARK    1  A    between atoms: C1_1  and  C2_2 
REMARK       I    between atoms: C1_1  and  N1_4 
REMARK    2  A    between atoms: N1_4  and  C3_5 
REMARK    3  A    between atoms: C3_5  and  C4_6 
REMARK    4  A    between atoms: C3_5  and  C5_7 
REMARK    5  A    between atoms: C5_7  and  O2_8 
REMARK    6  A    between atoms: N3_14  and  C15_21 
REMARK    7  A    between atoms: C15_21  and  C16_22 
REMARK    8  A    between atoms: C16_22  and  C17_23 
REMARK    9  A    between atoms: C17_23  and  C18_24 
ROOT
HETATM    1  C2  UNL     1       0.212   3.068 -12.443  1.00  0.00     0.157 A 
HETATM    2  N2  UNL     1       0.832   4.080 -11.808  1.00  0.00    -0.166 NA
HETATM    3  N3  UNL     1       1.381   4.813 -12.791  1.00  0.00    -0.268 N 
HETATM    4  C9  UNL     1       1.134   4.336 -14.053  1.00  0.00     0.065 A 
HETATM    5  C10 UNL     1       0.359   3.194 -13.863  1.00  0.00     0.028 A 
HETATM    6  C11 UNL     1       1.500   4.802 -15.324  1.00  0.00     0.032 A 
HETATM    7  C12 UNL     1       1.057   4.077 -16.433  1.00  0.00     0.002 A 
HETATM    8  C13 UNL     1       0.271   2.939 -16.277  1.00  0.00     0.001 A 
HETATM    9  C14 UNL     1      -0.089   2.489 -15.001  1.00  0.00     0.016 A 
ENDROOT
BRANCH   1  10
HETATM   10  C1  UNL     1      -0.497   2.026 -11.681  1.00  0.00     0.273 C 
HETATM   11  O1  UNL     1      -1.703   1.812 -11.786  1.00  0.00    -0.266 OA
HETATM   12  N1  UNL     1       0.288   1.313 -10.798  1.00  0.00    -0.341 N 
HETATM   13  H1  UNL     1       1.232   1.634 -10.605  1.00  0.00     0.163 HD
BRANCH  12  14
HETATM   14  C3  UNL     1      -0.274   0.307  -9.893  1.00  0.00     0.188 C 
BRANCH  14  15
HETATM   15  C4  UNL     1       0.357  -1.082 -10.142  1.00  0.00     0.010 C 
HETATM   16  C6  UNL     1       0.362  -1.454 -11.626  1.00  0.00     0.012 C 
HETATM   17  C7  UNL     1      -0.303  -2.198  -9.326  1.00  0.00     0.012 C 
ENDBRANCH  14  15
BRANCH  14  18
HETATM   18  C5  UNL     1      -0.071   0.823  -8.463  1.00  0.00     0.281 C 
HETATM   19  O3  UNL     1      -0.984   1.229  -7.750  1.00  0.00    -0.263 OA
BRANCH  18  20
HETATM   20  O2  UNL     1       1.238   0.762  -8.101  1.00  0.00    -0.325 OA
HETATM   21  C8  UNL     1       1.457   0.239  -6.789  1.00  0.00     0.213 C 
ENDBRANCH  18  20
ENDBRANCH  14  18
ENDBRANCH  12  14
ENDBRANCH   1  10
BRANCH   3  22
HETATM   22  C15 UNL     1       2.130   6.006 -12.432  1.00  0.00     0.154 C 
BRANCH  22  23
HETATM   23  C16 UNL     1       1.201   7.178 -12.128  1.00  0.00     0.059 C 
BRANCH  23  24
HETATM   24  C17 UNL     1       0.985   8.087 -13.330  1.00  0.00     0.171 C 
HETATM   25  F1  UNL     1      -0.059   7.589 -14.053  1.00  0.00    -0.249 F 
BRANCH  24  26
HETATM   26  C18 UNL     1       2.198   8.207 -14.248  1.00  0.00     0.033 C 
HETATM   27  C19 UNL     1       2.622   9.659 -14.420  1.00  0.00     0.008 C 
ENDBRANCH  24  26
ENDBRANCH  23  24
ENDBRANCH  22  23
ENDBRANCH   3  22
TORSDOF 9
ENDMDL
