MODEL 1
REMARK VINA RESULT:      -6.5      0.000      0.000
REMARK  5 active torsions:
REMARK  status: ('A' for Active; 'I' for Inactive)
REMARK    1  A    between atoms: C1_1  and  C5_6 
REMARK    2  A    between atoms: C2_2  and  O4_10 
REMARK    3  A    between atoms: C4_4  and  O1_5 
REMARK    4  A    between atoms: C5_6  and  O2_7 
REMARK    5  A    between atoms: O4_10  and  P1_11 
ROOT
HETATM    1  C1  UNL     1      -0.162   3.689 -14.811  1.00  0.00     0.180 A 
HETATM    2  C2  UNL     1       0.885   3.913 -13.720  1.00  0.00     0.199 A 
HETATM    3  C3  UNL     1       0.755   2.670 -12.850  1.00  0.00     0.199 A 
HETATM    4  C4  UNL     1      -0.755   2.473 -12.941  1.00  0.00     0.264 A 
HETATM    5  O1  UNL     1      -1.102   2.686 -14.326  1.00  0.00    -0.353 OA
HETATM    6  N1  UNL     1      -1.267   1.176 -12.482  1.00  0.00    -0.280 N 
HETATM    7  O3  UNL     1       1.216   2.781 -11.507  1.00  0.00    -0.388 OA
HETATM    8  C6  UNL     1      -2.080   1.159 -11.362  1.00  0.00     0.104 A 
HETATM    9  C7  UNL     1      -2.563   0.028 -10.844  1.00  0.00     0.092 A 
HETATM   10  C8  UNL     1      -2.213  -1.244 -11.487  1.00  0.00     0.250 A 
HETATM   11  N2  UNL     1      -1.380  -1.153 -12.560  1.00  0.00    -0.275 N 
HETATM   12  C9  UNL     1      -0.860   0.002 -13.096  1.00  0.00     0.331 A 
HETATM   13  O8  UNL     1      -0.098  -0.100 -14.054  1.00  0.00    -0.246 OA
HETATM   14  O9  UNL     1      -2.657  -2.309 -11.067  1.00  0.00    -0.268 OA
HETATM   15 NA1  UNL     1      -0.107   2.428 -13.156  1.00  0.00     0.000 Na
HETATM   16 NA2  UNL     1      -0.107   2.428 -13.156  1.00  0.00     0.000 Na
HETATM   17  H8  UNL     1       1.738   3.645 -11.465  1.00  0.00     0.210 HD
HETATM   18  H11 UNL     1      -1.094  -2.005 -13.011  1.00  0.00     0.173 HD
ENDROOT
BRANCH   2  19
HETATM   19  O4  UNL     1       0.482   5.064 -12.986  1.00  0.00    -0.272 OA
BRANCH  19  20
HETATM   20  P1  UNL     1       1.648   6.199 -12.834  1.00  0.00     0.422 P 
HETATM   21  O5  UNL     1       2.415   5.667 -11.631  1.00  0.00    -0.617 OA
HETATM   22  O6  UNL     1       0.872   7.477 -12.602  1.00  0.00    -0.617 OA
HETATM   23  O7  UNL     1       2.387   6.098 -14.158  1.00  0.00    -0.617 OA
ENDBRANCH  19  20
ENDBRANCH   2  19
BRANCH   1  24
HETATM   24  C5  UNL     1       0.424   3.267 -16.164  1.00  0.00     0.198 C 
BRANCH  24  25
HETATM   25  O2  UNL     1       0.560   1.859 -16.343  1.00  0.00    -0.398 OA
HETATM   26  H7  UNL     1       1.408   1.599 -15.943  1.00  0.00     0.209 HD
ENDBRANCH  24  25
ENDBRANCH   1  24
TORSDOF 5
ENDMDL
MODEL 2
REMARK VINA RESULT:      -6.2      3.571      7.118
REMARK  5 active torsions:
REMARK  status: ('A' for Active; 'I' for Inactive)
REMARK    1  A    between atoms: C1_1  and  C5_6 
REMARK    2  A    between atoms: C2_2  and  O4_10 
REMARK    3  A    between atoms: C4_4  and  O1_5 
REMARK    4  A    between atoms: C5_6  and  O2_7 
REMARK    5  A    between atoms: O4_10  and  P1_11 
ROOT
HETATM    1  C1  UNL     1      -0.502  -0.707  -8.735  1.00  0.00     0.180 A 
HETATM    2  C2  UNL     1      -0.029  -1.775  -9.723  1.00  0.00     0.199 A 
HETATM    3  C3  UNL     1       0.465  -0.960 -10.910  1.00  0.00     0.199 A 
HETATM    4  C4  UNL     1      -0.565   0.165 -10.872  1.00  0.00     0.264 A 
HETATM    5  O1  UNL     1      -0.709   0.528  -9.483  1.00  0.00    -0.353 OA
HETATM    6  N1  UNL     1      -0.258   1.352 -11.680  1.00  0.00    -0.280 N 
HETATM    7  O3  UNL     1       0.507  -1.627 -12.167  1.00  0.00    -0.388 OA
HETATM    8  C6  UNL     1      -1.082   1.636 -12.754  1.00  0.00     0.104 A 
HETATM    9  C7  UNL     1      -0.864   2.668 -13.571  1.00  0.00     0.092 A 
HETATM   10  C8  UNL     1       0.297   3.530 -13.318  1.00  0.00     0.250 A 
HETATM   11  N2  UNL     1       1.083   3.167 -12.268  1.00  0.00    -0.275 N 
HETATM   12  C9  UNL     1       0.883   2.098 -11.427  1.00  0.00     0.331 A 
HETATM   13  O8  UNL     1       1.709   1.898 -10.541  1.00  0.00    -0.246 OA
HETATM   14  O9  UNL     1       0.523   4.510 -14.022  1.00  0.00    -0.268 OA
HETATM   15 NA1  UNL     1       0.002  -0.166 -10.681  1.00  0.00     0.000 Na
HETATM   16 NA2  UNL     1       0.002  -0.166 -10.681  1.00  0.00     0.000 Na
HETATM   17  H8  UNL     1       0.378  -2.608 -11.964  1.00  0.00     0.210 HD
HETATM   18  H11 UNL     1       1.905   3.716 -12.079  1.00  0.00     0.173 HD
ENDROOT
BRANCH   2  19
HETATM   19  O4  UNL     1      -1.175  -2.533 -10.096  1.00  0.00    -0.272 OA
BRANCH  19  20
HETATM   20  P1  UNL     1      -1.303  -3.969  -9.328  1.00  0.00     0.422 P 
HETATM   21  O5  UNL     1       0.118  -4.149  -8.812  1.00  0.00    -0.617 OA
HETATM   22  O6  UNL     1      -1.727  -4.922 -10.424  1.00  0.00    -0.617 OA
HETATM   23  O7  UNL     1      -2.339  -3.682  -8.255  1.00  0.00    -0.617 OA
ENDBRANCH  19  20
ENDBRANCH   2  19
BRANCH   1  24
HETATM   24  C5  UNL     1       0.456  -0.471  -7.561  1.00  0.00     0.198 C 
BRANCH  24  25
HETATM   25  O2  UNL     1       1.581   0.350  -7.865  1.00  0.00    -0.398 OA
HETATM   26  H7  UNL     1       1.563   1.103  -7.249  1.00  0.00     0.209 HD
ENDBRANCH  24  25
ENDBRANCH   1  24
TORSDOF 5
ENDMDL
