MODEL 1
REMARK VINA RESULT:      -9.7      0.000      0.000
REMARK  1 active torsions:
REMARK  status: ('A' for Active; 'I' for Inactive)
REMARK    1  A    between atoms: N2_8  and  C6_9 
ROOT
HETATM    1  C6  UNL     1       0.840   4.719 -12.443  1.00  0.00     0.139 C 
HETATM    2  C7  UNL     1       0.785   4.147 -13.829  1.00  0.00     0.036 A 
HETATM    3  N3  UNL     1       0.668   4.045 -11.343  1.00  0.00    -0.228 NA
HETATM    4  C8  UNL     1      -0.179   3.206 -14.214  1.00  0.00     0.046 A 
HETATM    5  C9  UNL     1       1.687   4.660 -14.779  1.00  0.00     0.017 A 
HETATM    6  C10 UNL     1       0.342   2.688 -11.242  1.00  0.00     0.087 A 
HETATM    7  N4  UNL     1      -1.031   2.555 -13.300  1.00  0.00    -0.354 N 
HETATM    8  C11 UNL     1      -0.253   2.844 -15.572  1.00  0.00     0.030 A 
HETATM    9  C12 UNL     1       1.614   4.271 -16.116  1.00  0.00     0.001 A 
HETATM   10  C13 UNL     1      -0.545   1.999 -12.093  1.00  0.00     0.061 A 
HETATM   11  C14 UNL     1       0.838   2.033 -10.104  1.00  0.00     0.057 A 
HETATM   12  C15 UNL     1       0.632   3.372 -16.515  1.00  0.00     0.002 A 
HETATM   13  C16 UNL     1      -0.923   0.681 -11.770  1.00  0.00     0.033 A 
HETATM   14  C17 UNL     1       0.468   0.723  -9.810  1.00  0.00     0.036 A 
HETATM   15  C18 UNL     1      -0.416   0.044 -10.636  1.00  0.00     0.026 A 
HETATM   16 CL1  UNL     1       1.098  -0.052  -8.409  1.00  0.00    -0.084 Cl
HETATM   17  H13 UNL     1      -1.711   1.956 -13.755  1.00  0.00     0.166 HD
ENDROOT
BRANCH   1  18
HETATM   18  N2  UNL     1       1.114   6.098 -12.329  1.00  0.00    -0.361 N 
HETATM   19  C4  UNL     1       0.643   6.999 -13.409  1.00  0.00     0.161 C 
HETATM   20  C2  UNL     1       1.812   7.507 -14.243  1.00  0.00     0.331 C 
HETATM   21  N1  UNL     1       2.759   8.374 -13.417  1.00  0.00     0.012 N 
HETATM   22  C1  UNL     1       2.366   9.821 -13.520  1.00  0.00     0.356 C 
HETATM   23  O1  UNL     1       4.043   8.249 -13.895  1.00  0.00    -0.065 OA
HETATM   24  C3  UNL     1       2.727   7.950 -11.956  1.00  0.00     0.331 C 
HETATM   25  C5  UNL     1       2.465   6.457 -11.812  1.00  0.00     0.161 C 
ENDBRANCH   1  18
TORSDOF 1
ENDMDL
MODEL 2
REMARK VINA RESULT:      -9.5      2.194      2.640
REMARK  1 active torsions:
REMARK  status: ('A' for Active; 'I' for Inactive)
REMARK    1  A    between atoms: N2_8  and  C6_9 
ROOT
HETATM    1  C6  UNL     1       1.022   3.467 -12.261  1.00  0.00     0.139 C 
HETATM    2  C7  UNL     1       0.978   3.272 -13.747  1.00  0.00     0.036 A 
HETATM    3  N3  UNL     1       0.639   2.594 -11.375  1.00  0.00    -0.228 NA
HETATM    4  C8  UNL     1      -0.105   2.662 -14.392  1.00  0.00     0.046 A 
HETATM    5  C9  UNL     1       2.034   3.812 -14.504  1.00  0.00     0.017 A 
HETATM    6  C10 UNL     1       0.063   1.344 -11.634  1.00  0.00     0.087 A 
HETATM    7  N4  UNL     1      -1.135   1.990 -13.704  1.00  0.00    -0.354 N 
HETATM    8  C11 UNL     1      -0.131   2.663 -15.800  1.00  0.00     0.030 A 
HETATM    9  C12 UNL     1       2.004   3.783 -15.898  1.00  0.00     0.001 A 
HETATM   10  C13 UNL     1      -0.861   1.073 -12.662  1.00  0.00     0.061 A 
HETATM   11  C14 UNL     1       0.335   0.348 -10.684  1.00  0.00     0.057 A 
HETATM   12  C15 UNL     1       0.911   3.219 -16.546  1.00  0.00     0.002 A 
HETATM   13  C16 UNL     1      -1.498  -0.184 -12.699  1.00  0.00     0.033 A 
HETATM   14  C17 UNL     1      -0.290  -0.895 -10.747  1.00  0.00     0.036 A 
HETATM   15  C18 UNL     1      -1.212  -1.164 -11.748  1.00  0.00     0.026 A 
HETATM   16 CL1  UNL     1       0.069  -2.096  -9.568  1.00  0.00    -0.084 Cl
HETATM   17  H13 UNL     1      -1.872   1.666 -14.320  1.00  0.00     0.166 HD
ENDROOT
BRANCH   1  18
HETATM   18  N2  UNL     1       1.532   4.696 -11.790  1.00  0.00    -0.361 N 
HETATM   19  C4  UNL     1       2.316   4.695 -10.531  1.00  0.00     0.161 C 
HETATM   20  C2  UNL     1       1.528   5.341  -9.398  1.00  0.00     0.331 C 
HETATM   21  N1  UNL     1       1.259   6.818  -9.671  1.00  0.00     0.012 N 
HETATM   22  C1  UNL     1       2.349   7.666  -9.079  1.00  0.00     0.356 C 
HETATM   23  O1  UNL     1       0.068   7.190  -9.090  1.00  0.00    -0.065 OA
HETATM   24  C3  UNL     1       1.184   7.075 -11.169  1.00  0.00     0.331 C 
HETATM   25  C5  UNL     1       0.625   5.872 -11.917  1.00  0.00     0.161 C 
ENDBRANCH   1  18
TORSDOF 1
ENDMDL
