MODEL 1
REMARK VINA RESULT:      -6.0      0.000      0.000
REMARK  17 active torsions:
REMARK  status: ('A' for Active; 'I' for Inactive)
REMARK    1  A    between atoms: C1_1  and  C2_2 
REMARK    2  A    between atoms: C1_1  and  O2_4 
REMARK    3  A    between atoms: C2_2  and  N1_5 
REMARK       I    between atoms: N1_5  and  C3_6 
REMARK    4  A    between atoms: C3_6  and  C4_7 
REMARK    5  A    between atoms: C4_7  and  N2_9 
REMARK       I    between atoms: N2_9  and  C5_10 
REMARK    6  A    between atoms: C5_10  and  C6_11 
REMARK    7  A    between atoms: C6_11  and  C7_13 
REMARK    8  A    between atoms: C7_13  and  C8_14 
REMARK    9  A    between atoms: C8_14  and  C9_15 
REMARK   10  A    between atoms: C9_15  and  C10_16 
REMARK   11  A    between atoms: C10_16  and  C11_17 
REMARK   12  A    between atoms: C11_17  and  C12_18 
REMARK       I    between atoms: C12_18  and  N3_19 
REMARK   13  A    between atoms: N3_19  and  C13_21 
REMARK   14  A    between atoms: C13_21  and  C14_22 
REMARK       I    between atoms: C14_22  and  N4_23 
REMARK   15  A    between atoms: N4_23  and  C15_25 
REMARK   16  A    between atoms: C15_25  and  C16_26 
REMARK   17  A    between atoms: C16_26  and  O7_27 
ROOT
HETATM    1  C8  UNL     1      -0.740   2.562 -15.541  1.00  0.00     0.000 C 
ENDROOT
BRANCH   1   2
HETATM    2  C7  UNL     1      -0.816   2.518 -14.013  1.00  0.00     0.009 C 
BRANCH   2   3
HETATM    3  C6  UNL     1      -0.682   1.092 -13.484  1.00  0.00     0.103 C 
BRANCH   3   4
HETATM    4  C5  UNL     1      -0.627   1.044 -11.969  1.00  0.00     0.217 C 
HETATM    5  N2  UNL     1      -0.650   2.287 -11.389  1.00  0.00    -0.352 N 
HETATM    6  H7  UNL     1      -0.547   3.105 -11.980  1.00  0.00     0.162 HD
HETATM    7  O4  UNL     1      -0.497   0.010 -11.318  1.00  0.00    -0.274 OA
BRANCH   5   8
HETATM    8  C4  UNL     1      -0.542   2.494  -9.949  1.00  0.00     0.225 C 
BRANCH   8   9
HETATM    9  C3  UNL     1      -0.347   3.970  -9.595  1.00  0.00     0.235 C 
HETATM   10  N1  UNL     1      -0.012   4.780 -10.654  1.00  0.00    -0.350 N 
HETATM   11  H4  UNL     1      -0.041   4.389 -11.589  1.00  0.00     0.163 HD
HETATM   12  O3  UNL     1      -0.393   4.375  -8.434  1.00  0.00    -0.272 OA
BRANCH  10  13
HETATM   13  C2  UNL     1      -0.024   6.226 -10.532  1.00  0.00     0.232 C 
BRANCH  13  14
HETATM   14  C1  UNL     1       1.356   6.730 -10.133  1.00  0.00     0.158 C 
HETATM   15  O1  UNL     1       1.617   7.710  -9.449  1.00  0.00    -0.649 OA
BRANCH  14  16
HETATM   16  O2  UNL     1       2.345   5.968 -10.642  1.00  0.00    -0.775 OA
HETATM   17  H3  UNL     1       1.875   5.250 -11.118  1.00  0.00     0.167 HD
ENDBRANCH  14  16
ENDBRANCH  13  14
ENDBRANCH  10  13
ENDBRANCH   8   9
ENDBRANCH   5   8
ENDBRANCH   3   4
ENDBRANCH   2   3
ENDBRANCH   1   2
BRANCH   1  18
HETATM   18  C9  UNL     1      -0.260   3.932 -16.024  1.00  0.00     0.000 C 
BRANCH  18  19
HETATM   19  C10 UNL     1       1.211   3.965 -16.459  1.00  0.00     0.009 C 
BRANCH  19  20
HETATM   20  C11 UNL     1       2.224   3.937 -15.313  1.00  0.00     0.103 C 
BRANCH  20  21
HETATM   21  C12 UNL     1       1.926   4.963 -14.237  1.00  0.00     0.217 C 
HETATM   22  N3  UNL     1       2.085   6.266 -14.654  1.00  0.00    -0.352 N 
HETATM   23  H20 UNL     1       2.083   6.441 -15.652  1.00  0.00     0.162 HD
HETATM   24  O5  UNL     1       1.603   4.664 -13.090  1.00  0.00    -0.274 OA
BRANCH  22  25
HETATM   25  C13 UNL     1       1.575   7.355 -13.842  1.00  0.00     0.225 C 
BRANCH  25  26
HETATM   26  C14 UNL     1       2.765   8.159 -13.308  1.00  0.00     0.235 C 
HETATM   27  N4  UNL     1       2.504   8.900 -12.176  1.00  0.00    -0.350 N 
HETATM   28  H23 UNL     1       1.547   9.221 -12.058  1.00  0.00     0.163 HD
HETATM   29  O6  UNL     1       3.876   8.110 -13.836  1.00  0.00    -0.272 OA
BRANCH  27  30
HETATM   30  C15 UNL     1       3.542   9.763 -11.626  1.00  0.00     0.232 C 
BRANCH  30  31
HETATM   31  C16 UNL     1       2.939  10.808 -10.702  1.00  0.00     0.158 C 
HETATM   32  O8  UNL     1       2.403  11.849 -11.053  1.00  0.00    -0.649 OA
BRANCH  31  33
HETATM   33  O7  UNL     1       3.025  10.456  -9.403  1.00  0.00    -0.775 OA
HETATM   34  H26 UNL     1       3.039  11.314  -8.899  1.00  0.00     0.167 HD
ENDBRANCH  31  33
ENDBRANCH  30  31
ENDBRANCH  27  30
ENDBRANCH  25  26
ENDBRANCH  22  25
ENDBRANCH  20  21
ENDBRANCH  19  20
ENDBRANCH  18  19
ENDBRANCH   1  18
TORSDOF 17
ENDMDL
MODEL 2
REMARK VINA RESULT:      -5.9      2.418      7.656
REMARK  17 active torsions:
REMARK  status: ('A' for Active; 'I' for Inactive)
REMARK    1  A    between atoms: C1_1  and  C2_2 
REMARK    2  A    between atoms: C1_1  and  O2_4 
REMARK    3  A    between atoms: C2_2  and  N1_5 
REMARK       I    between atoms: N1_5  and  C3_6 
REMARK    4  A    between atoms: C3_6  and  C4_7 
REMARK    5  A    between atoms: C4_7  and  N2_9 
REMARK       I    between atoms: N2_9  and  C5_10 
REMARK    6  A    between atoms: C5_10  and  C6_11 
REMARK    7  A    between atoms: C6_11  and  C7_13 
REMARK    8  A    between atoms: C7_13  and  C8_14 
REMARK    9  A    between atoms: C8_14  and  C9_15 
REMARK   10  A    between atoms: C9_15  and  C10_16 
REMARK   11  A    between atoms: C10_16  and  C11_17 
REMARK   12  A    between atoms: C11_17  and  C12_18 
REMARK       I    between atoms: C12_18  and  N3_19 
REMARK   13  A    between atoms: N3_19  and  C13_21 
REMARK   14  A    between atoms: C13_21  and  C14_22 
REMARK       I    between atoms: C14_22  and  N4_23 
REMARK   15  A    between atoms: N4_23  and  C15_25 
REMARK   16  A    between atoms: C15_25  and  C16_26 
REMARK   17  A    between atoms: C16_26  and  O7_27 
ROOT
HETATM    1  C8  UNL     1       1.408   3.067 -16.203  1.00  0.00     0.000 C 
ENDROOT
BRANCH   1   2
HETATM    2  C7  UNL     1       2.143   4.081 -15.324  1.00  0.00     0.009 C 
BRANCH   2   3
HETATM    3  C6  UNL     1       1.256   5.279 -14.986  1.00  0.00     0.103 C 
BRANCH   3   4
HETATM    4  C5  UNL     1       1.849   6.140 -13.887  1.00  0.00     0.217 C 
HETATM    5  N2  UNL     1       1.279   5.916 -12.660  1.00  0.00    -0.352 N 
HETATM    6  H7  UNL     1       0.445   5.341 -12.605  1.00  0.00     0.162 HD
HETATM    7  O4  UNL     1       2.698   7.008 -14.078  1.00  0.00    -0.274 OA
BRANCH   5   8
HETATM    8  C4  UNL     1       1.642   6.671 -11.466  1.00  0.00     0.225 C 
BRANCH   8   9
HETATM    9  C3  UNL     1       0.785   6.282 -10.259  1.00  0.00     0.235 C 
HETATM   10  N1  UNL     1       0.294   4.998 -10.287  1.00  0.00    -0.350 N 
HETATM   11  H4  UNL     1       0.623   4.371 -11.014  1.00  0.00     0.163 HD
HETATM   12  O3  UNL     1       0.485   7.091  -9.383  1.00  0.00    -0.272 OA
BRANCH  10  13
HETATM   13  C2  UNL     1      -0.331   4.402  -9.122  1.00  0.00     0.232 C 
BRANCH  13  14
HETATM   14  C1  UNL     1      -1.843   4.369  -9.296  1.00  0.00     0.158 C 
HETATM   15  O1  UNL     1      -2.480   4.655 -10.300  1.00  0.00    -0.649 OA
BRANCH  14  16
HETATM   16  O2  UNL     1      -2.478   3.989  -8.168  1.00  0.00    -0.775 OA
HETATM   17  H3  UNL     1      -2.692   4.833  -7.716  1.00  0.00     0.167 HD
ENDBRANCH  14  16
ENDBRANCH  13  14
ENDBRANCH  10  13
ENDBRANCH   8   9
ENDBRANCH   5   8
ENDBRANCH   3   4
ENDBRANCH   2   3
ENDBRANCH   1   2
BRANCH   1  18
HETATM   18  C9  UNL     1      -0.103   3.136 -15.969  1.00  0.00     0.000 C 
BRANCH  18  19
HETATM   19  C10 UNL     1      -0.630   2.108 -14.959  1.00  0.00     0.009 C 
BRANCH  19  20
HETATM   20  C11 UNL     1      -1.028   2.685 -13.599  1.00  0.00     0.103 C 
BRANCH  20  21
HETATM   21  C12 UNL     1      -0.090   2.266 -12.483  1.00  0.00     0.217 C 
HETATM   22  N3  UNL     1      -0.499   1.133 -11.813  1.00  0.00    -0.352 N 
HETATM   23  H20 UNL     1      -1.171   0.533 -12.275  1.00  0.00     0.162 HD
HETATM   24  O5  UNL     1       0.922   2.891 -12.181  1.00  0.00    -0.274 OA
BRANCH  22  25
HETATM   25  C13 UNL     1       0.417   0.451 -10.918  1.00  0.00     0.225 C 
BRANCH  25  26
HETATM   26  C14 UNL     1       0.098  -1.047 -10.950  1.00  0.00     0.235 C 
HETATM   27  N4  UNL     1      -1.071  -1.405 -10.314  1.00  0.00    -0.350 N 
HETATM   28  H23 UNL     1      -1.364  -0.814  -9.541  1.00  0.00     0.163 HD
HETATM   29  O6  UNL     1       0.819  -1.857 -11.534  1.00  0.00    -0.272 OA
BRANCH  27  30
HETATM   30  C15 UNL     1      -1.435  -2.813 -10.216  1.00  0.00     0.232 C 
BRANCH  30  31
HETATM   31  C16 UNL     1      -0.965  -3.400  -8.895  1.00  0.00     0.158 C 
HETATM   32  O8  UNL     1       0.115  -3.935  -8.694  1.00  0.00    -0.649 OA
BRANCH  31  33
HETATM   33  O7  UNL     1      -1.874  -3.245  -7.911  1.00  0.00    -0.775 OA
HETATM   34  H26 UNL     1      -2.291  -4.141  -7.795  1.00  0.00     0.167 HD
ENDBRANCH  31  33
ENDBRANCH  30  31
ENDBRANCH  27  30
ENDBRANCH  25  26
ENDBRANCH  22  25
ENDBRANCH  20  21
ENDBRANCH  19  20
ENDBRANCH  18  19
ENDBRANCH   1  18
TORSDOF 17
ENDMDL
