MODEL 1
REMARK VINA RESULT:      -7.3      0.000      0.000
REMARK  5 active torsions:
REMARK  status: ('A' for Active; 'I' for Inactive)
REMARK    1  A    between atoms: C3_4  and  C4_5 
REMARK    2  A    between atoms: C4_5  and  C5_7 
REMARK    3  A    between atoms: C4_5  and  C13_17 
REMARK    4  A    between atoms: C5_7  and  O3_8 
REMARK    5  A    between atoms: C9_13  and  C12_16 
ROOT
HETATM    1  C1  UNL     1       0.403   3.533  -6.296  1.00  0.00     0.273 C 
HETATM    2  C2  UNL     1       1.216   5.720  -5.608  1.00  0.00     0.273 C 
HETATM    3  O1  UNL     1       1.447   4.648 -10.766  1.00  0.00    -0.315 OA
HETATM    4  C3  UNL     1       0.791   4.533 -11.962  1.00  0.00     0.270 A 
HETATM    5  O2  UNL     1      -0.224   3.870 -12.119  1.00  0.00    -0.264 OA
HETATM    6  C6  UNL     1       2.311   4.654  -7.648  1.00  0.00     0.192 C 
HETATM    7  N1  UNL     1       1.003   4.826  -6.851  1.00  0.00    -0.066 N 
HETATM    8  C7  UNL     1       2.122   3.577  -8.727  1.00  0.00     0.066 C 
HETATM    9  C8  UNL     1       2.511   6.040  -8.280  1.00  0.00     0.035 C 
HETATM   10  C9  UNL     1       0.147   5.544  -7.911  1.00  0.00     0.192 C 
HETATM   11  C10 UNL     1       0.941   3.843  -9.678  1.00  0.00     0.136 A 
HETATM   12  C11 UNL     1       1.102   6.618  -8.456  1.00  0.00     0.035 C 
HETATM   13  C12 UNL     1      -0.253   4.553  -9.017  1.00  0.00     0.066 A 
HETATM   14  N2  UNL     1       1.788   4.712 -10.295  1.00  0.00     0.014 N 
HETATM   15  O4  UNL     1       0.555   4.731 -10.149  1.00  0.00    -0.505 OA
HETATM   16  O5  UNL     1       2.278   4.586 -11.429  1.00  0.00    -0.505 OA
HETATM   17  O6  UNL     1       2.533   4.819  -9.307  1.00  0.00    -0.505 OA
ENDROOT
BRANCH   4  18
HETATM   18  C4  UNL     1       1.502   5.337 -13.035  1.00  0.00     0.142 C 
BRANCH  18  19
HETATM   19  C5  UNL     1       0.993   6.782 -13.039  1.00  0.00     0.183 C 
BRANCH  19  20
HETATM   20  O3  UNL     1       0.125   7.005 -11.928  1.00  0.00    -0.400 OA
HETATM   21  H10 UNL     1      -0.787   6.847 -12.235  1.00  0.00     0.209 HD
ENDBRANCH  19  20
ENDBRANCH  18  19
BRANCH  18  22
HETATM   22  C13 UNL     1       1.380   4.689 -14.405  1.00  0.00    -0.043 A 
HETATM   23  C14 UNL     1       0.255   4.948 -15.202  1.00  0.00     0.008 A 
HETATM   24  C16 UNL     1       0.119   4.344 -16.454  1.00  0.00     0.001 A 
HETATM   25  C18 UNL     1       1.105   3.476 -16.922  1.00  0.00     0.000 A 
HETATM   26  C17 UNL     1       2.224   3.208 -16.138  1.00  0.00     0.001 A 
HETATM   27  C15 UNL     1       2.363   3.809 -14.886  1.00  0.00     0.008 A 
ENDBRANCH  18  22
ENDBRANCH   4  18
TORSDOF 5
ENDMDL
MODEL 2
REMARK VINA RESULT:      -7.2      1.426      2.574
REMARK  5 active torsions:
REMARK  status: ('A' for Active; 'I' for Inactive)
REMARK    1  A    between atoms: C3_4  and  C4_5 
REMARK    2  A    between atoms: C4_5  and  C5_7 
REMARK    3  A    between atoms: C4_5  and  C13_17 
REMARK    4  A    between atoms: C5_7  and  O3_8 
REMARK    5  A    between atoms: C9_13  and  C12_16 
ROOT
HETATM    1  C1  UNL     1      -0.546   8.102  -7.119  1.00  0.00     0.273 C 
HETATM    2  C2  UNL     1       0.069   6.369  -5.527  1.00  0.00     0.273 C 
HETATM    3  O1  UNL     1       0.049   4.981 -10.614  1.00  0.00    -0.315 OA
HETATM    4  C3  UNL     1       0.673   5.011 -11.832  1.00  0.00     0.270 A 
HETATM    5  O2  UNL     1       1.071   6.036 -12.367  1.00  0.00    -0.264 OA
HETATM    6  C6  UNL     1      -1.108   5.630  -7.664  1.00  0.00     0.192 C 
HETATM    7  N1  UNL     1      -0.121   6.635  -7.037  1.00  0.00    -0.066 N 
HETATM    8  C7  UNL     1      -1.457   6.069  -9.094  1.00  0.00     0.066 C 
HETATM    9  C8  UNL     1      -0.307   4.320  -7.667  1.00  0.00     0.035 C 
HETATM   10  C9  UNL     1       1.150   6.276  -7.829  1.00  0.00     0.192 C 
HETATM   11  C10 UNL     1      -0.232   6.261 -10.006  1.00  0.00     0.136 A 
HETATM   12  C11 UNL     1       1.163   4.739  -7.780  1.00  0.00     0.035 C 
HETATM   13  C12 UNL     1       1.022   6.777  -9.277  1.00  0.00     0.066 A 
HETATM   14  N2  UNL     1      -0.250   4.904 -10.117  1.00  0.00     0.014 N 
HETATM   15  O4  UNL     1       0.689   5.718 -10.134  1.00  0.00    -0.505 OA
HETATM   16  O5  UNL     1      -0.525   4.250 -11.136  1.00  0.00    -0.505 OA
HETATM   17  O6  UNL     1      -0.914   4.745  -9.080  1.00  0.00    -0.505 OA
ENDROOT
BRANCH   4  18
HETATM   18  C4  UNL     1       0.791   3.610 -12.401  1.00  0.00     0.142 C 
BRANCH  18  19
HETATM   19  C5  UNL     1       2.037   2.914 -11.841  1.00  0.00     0.183 C 
BRANCH  19  20
HETATM   20  O3  UNL     1       2.662   3.735 -10.854  1.00  0.00    -0.400 OA
HETATM   21  H10 UNL     1       3.625   3.626 -10.952  1.00  0.00     0.209 HD
ENDBRANCH  19  20
ENDBRANCH  18  19
BRANCH  18  22
HETATM   22  C13 UNL     1       0.778   3.610 -13.921  1.00  0.00    -0.043 A 
HETATM   23  C14 UNL     1      -0.426   3.397 -14.610  1.00  0.00     0.008 A 
HETATM   24  C16 UNL     1      -0.450   3.375 -16.006  1.00  0.00     0.001 A 
HETATM   25  C18 UNL     1       0.728   3.566 -16.728  1.00  0.00     0.000 A 
HETATM   26  C17 UNL     1       1.929   3.774 -16.056  1.00  0.00     0.001 A 
HETATM   27  C15 UNL     1       1.957   3.796 -14.661  1.00  0.00     0.008 A 
ENDBRANCH  18  22
ENDBRANCH   4  18
TORSDOF 5
ENDMDL
