MODEL 1
REMARK VINA RESULT:      -8.2      0.000      0.000
REMARK  7 active torsions:
REMARK  status: ('A' for Active; 'I' for Inactive)
REMARK    1  A    between atoms: C13_13  and  C14_14 
REMARK    2  A    between atoms: C14_14  and  O2_22 
REMARK    3  A    between atoms: C17_17  and  C19_19 
REMARK    4  A    between atoms: C19_19  and  C21_24 
REMARK    5  A    between atoms: C21_24  and  O5_26 
REMARK    6  A    between atoms: O5_26  and  S1_27 
REMARK    7  A    between atoms: S1_27  and  O6_28 
ROOT
HETATM    1  C1  UNL     1       2.724   7.765 -11.940  1.00  0.00     0.084 C 
HETATM    2  C2  UNL     1       2.758   7.862 -13.446  1.00  0.00     0.149 C 
HETATM    3  C3  UNL     1       2.149   6.773 -14.247  1.00  0.00     0.053 C 
HETATM    4  C4  UNL     1       1.476   5.760 -13.675  1.00  0.00    -0.068 C 
HETATM    5  C5  UNL     1       1.268   5.657 -12.155  1.00  0.00    -0.014 C 
HETATM    6  C6  UNL     1       2.479   6.336 -11.461  1.00  0.00     0.022 C 
HETATM    7  C7  UNL     1       0.983   4.618 -14.535  1.00  0.00     0.035 C 
HETATM    8  C8  UNL     1      -0.213   3.877 -13.945  1.00  0.00     0.010 A 
HETATM    9  C9  UNL     1      -0.016   3.432 -12.481  1.00  0.00    -0.002 A 
HETATM   10  C10 UNL     1       1.207   4.129 -11.801  1.00  0.00     0.031 A 
HETATM   11  C11 UNL     1       0.172   1.920 -12.307  1.00  0.00     0.006 A 
HETATM   12  C12 UNL     1       0.132   1.503 -10.820  1.00  0.00     0.029 A 
HETATM   13  C13 UNL     1       1.246   2.221 -10.036  1.00  0.00     0.050 A 
HETATM   14  C14 UNL     1       1.344   3.745 -10.303  1.00  0.00     0.124 A 
HETATM   15  C15 UNL     1      -0.795   0.940 -12.961  1.00  0.00     0.007 A 
HETATM   16  C16 UNL     1      -0.537  -0.380 -12.208  1.00  0.00     0.014 C 
HETATM   17  C17 UNL     1       0.339  -0.025 -10.984  1.00  0.00     0.073 C 
HETATM   18  C18 UNL     1      -1.248   1.794 -10.191  1.00  0.00     0.242 A 
HETATM   19  O1  UNL     1       3.258   8.824 -14.026  1.00  0.00    -0.293 OA
HETATM   20  C20 UNL     1      -0.024   6.420 -11.775  1.00  0.00     0.020 C 
HETATM   21  O3  UNL     1      -1.549   2.858  -9.656  1.00  0.00    -0.306 OA
HETATM   22 NA1  UNL     1       0.603   2.598 -11.894  1.00  0.00     0.000 Na
ENDROOT
BRANCH  17  23
HETATM   23  C19 UNL     1       0.039  -0.892  -9.765  1.00  0.00     0.157 C 
HETATM   24  O4  UNL     1       0.577  -0.695  -8.676  1.00  0.00    -0.295 OA
BRANCH  23  25
HETATM   25  C21 UNL     1      -0.934  -2.046  -9.952  1.00  0.00     0.270 C 
BRANCH  25  26
HETATM   26  O5  UNL     1      -1.515  -2.395  -8.717  1.00  0.00    -0.256 OA
BRANCH  26  27
HETATM   27  S1  UNL     1      -0.897  -3.676  -7.947  1.00  0.00     0.240 S 
HETATM   28  O7  UNL     1      -1.996  -4.409  -7.361  1.00  0.00    -0.579 OA
HETATM   29  O8  UNL     1       0.067  -4.292  -8.823  1.00  0.00    -0.579 OA
BRANCH  27  30
HETATM   30  O6  UNL     1      -0.059  -2.986  -6.763  1.00  0.00    -0.274 OA
HETATM   31  H28 UNL     1      -0.636  -2.322  -6.330  1.00  0.00     0.234 HD
ENDBRANCH  27  30
ENDBRANCH  26  27
ENDBRANCH  25  26
ENDBRANCH  23  25
ENDBRANCH  17  23
BRANCH  14  32
HETATM   32  O2  UNL     1       0.445   4.473  -9.486  1.00  0.00    -0.395 OA
HETATM   33  H25 UNL     1       0.204   5.313  -9.936  1.00  0.00     0.210 HD
ENDBRANCH  14  32
TORSDOF 7
ENDMDL
MODEL 2
REMARK VINA RESULT:      -8.1      3.480      8.324
REMARK  7 active torsions:
REMARK  status: ('A' for Active; 'I' for Inactive)
REMARK    1  A    between atoms: C13_13  and  C14_14 
REMARK    2  A    between atoms: C14_14  and  O2_22 
REMARK    3  A    between atoms: C17_17  and  C19_19 
REMARK    4  A    between atoms: C19_19  and  C21_24 
REMARK    5  A    between atoms: C21_24  and  O5_26 
REMARK    6  A    between atoms: O5_26  and  S1_27 
REMARK    7  A    between atoms: S1_27  and  O6_28 
ROOT
HETATM    1  C1  UNL     1      -2.821   1.028  -7.166  1.00  0.00     0.084 C 
HETATM    2  C2  UNL     1      -3.709  -0.016  -7.799  1.00  0.00     0.149 C 
HETATM    3  C3  UNL     1      -3.589  -0.271  -9.255  1.00  0.00     0.053 C 
HETATM    4  C4  UNL     1      -2.643   0.320 -10.005  1.00  0.00    -0.068 C 
HETATM    5  C5  UNL     1      -1.603   1.288  -9.416  1.00  0.00    -0.014 C 
HETATM    6  C6  UNL     1      -2.251   1.999  -8.197  1.00  0.00     0.022 C 
HETATM    7  C7  UNL     1      -2.648   0.114 -11.503  1.00  0.00     0.035 C 
HETATM    8  C8  UNL     1      -1.281   0.303 -12.153  1.00  0.00     0.010 A 
HETATM    9  C9  UNL     1      -0.582   1.625 -11.771  1.00  0.00    -0.002 A 
HETATM   10  C10 UNL     1      -1.249   2.323 -10.541  1.00  0.00     0.031 A 
HETATM   11  C11 UNL     1      -0.535   2.657 -12.904  1.00  0.00     0.006 A 
HETATM   12  C12 UNL     1       0.369   3.859 -12.551  1.00  0.00     0.029 A 
HETATM   13  C13 UNL     1      -0.150   4.560 -11.282  1.00  0.00     0.050 A 
HETATM   14  C14 UNL     1      -0.485   3.604 -10.108  1.00  0.00     0.124 A 
HETATM   15  C15 UNL     1      -0.044   2.261 -14.292  1.00  0.00     0.007 A 
HETATM   16  C16 UNL     1       0.261   3.611 -14.969  1.00  0.00     0.014 C 
HETATM   17  C17 UNL     1       0.211   4.683 -13.855  1.00  0.00     0.073 C 
HETATM   18  C18 UNL     1       1.839   3.422 -12.366  1.00  0.00     0.242 A 
HETATM   19  O1  UNL     1      -4.514  -0.672  -7.141  1.00  0.00    -0.293 OA
HETATM   20  C20 UNL     1      -0.379   0.474  -8.933  1.00  0.00     0.020 C 
HETATM   21  O3  UNL     1       2.317   3.051 -11.297  1.00  0.00    -0.306 OA
HETATM   22 NA1  UNL     1      -0.700   2.785 -12.026  1.00  0.00     0.000 Na
ENDROOT
BRANCH  17  23
HETATM   23  C19 UNL     1       1.208   5.817 -14.075  1.00  0.00     0.157 C 
HETATM   24  O4  UNL     1       2.244   5.657 -14.721  1.00  0.00    -0.295 OA
BRANCH  23  25
HETATM   25  C21 UNL     1       0.893   7.158 -13.431  1.00  0.00     0.270 C 
BRANCH  25  26
HETATM   26  O5  UNL     1       1.711   8.164 -13.982  1.00  0.00    -0.256 OA
BRANCH  26  27
HETATM   27  S1  UNL     1       2.880   8.762 -13.038  1.00  0.00     0.240 S 
HETATM   28  O7  UNL     1       2.584  10.156 -12.801  1.00  0.00    -0.579 OA
HETATM   29  O8  UNL     1       3.104   7.824 -11.966  1.00  0.00    -0.579 OA
BRANCH  27  30
HETATM   30  O6  UNL     1       4.167   8.672 -13.996  1.00  0.00    -0.274 OA
HETATM   31  H28 UNL     1       4.966   8.680 -13.430  1.00  0.00     0.234 HD
ENDBRANCH  27  30
ENDBRANCH  26  27
ENDBRANCH  25  26
ENDBRANCH  23  25
ENDBRANCH  17  23
BRANCH  14  32
HETATM   32  O2  UNL     1       0.666   3.300  -9.341  1.00  0.00    -0.395 OA
HETATM   33  H25 UNL     1       0.415   2.707  -8.599  1.00  0.00     0.210 HD
ENDBRANCH  14  32
TORSDOF 7
ENDMDL
