MODEL 1
REMARK VINA RESULT:      -6.1      0.000      0.000
REMARK  16 active torsions:
REMARK  status: ('A' for Active; 'I' for Inactive)
REMARK    1  A    between atoms: C1_1  and  C2_2 
REMARK    2  A    between atoms: C1_1  and  C5_5 
REMARK    3  A    between atoms: C3_3  and  C12_13 
REMARK    4  A    between atoms: C4_4  and  C5_5 
REMARK    5  A    between atoms: C5_5  and  O1_6 
REMARK    6  A    between atoms: C6_7  and  C7_8 
REMARK    7  A    between atoms: C8_9  and  C9_10 
REMARK    8  A    between atoms: C9_10  and  C10_11 
REMARK    9  A    between atoms: C10_11  and  C11_12 
REMARK   10  A    between atoms: C11_12  and  C20_21 
REMARK   11  A    between atoms: C12_13  and  C13_14 
REMARK   12  A    between atoms: C14_15  and  C15_16 
REMARK   13  A    between atoms: C15_16  and  C16_17 
REMARK   14  A    between atoms: C16_17  and  C17_18 
REMARK   15  A    between atoms: C17_18  and  C18_19 
REMARK   16  A    between atoms: C20_21  and  O3_23 
ROOT
HETATM    1  C5  UNL     1      -0.292   1.850 -14.087  1.00  0.00     0.144 C 
ENDROOT
BRANCH   1   2
HETATM    2  C1  UNL     1      -0.865   3.026 -14.907  1.00  0.00     0.062 C 
BRANCH   2   3
HETATM    3  C2  UNL     1      -0.104   3.351 -16.171  1.00  0.00    -0.027 C 
HETATM    4  C3  UNL     1       1.069   3.999 -16.271  1.00  0.00    -0.027 C 
BRANCH   4   5
HETATM    5  C12 UNL     1       1.936   4.512 -15.156  1.00  0.00     0.053 C 
BRANCH   5   6
HETATM    6  C13 UNL     1       1.430   5.832 -14.651  1.00  0.00    -0.027 C 
HETATM    7  C14 UNL     1       1.071   6.158 -13.397  1.00  0.00    -0.030 C 
BRANCH   7   8
HETATM    8  C15 UNL     1       1.086   5.279 -12.180  1.00  0.00     0.027 C 
BRANCH   8   9
HETATM    9  C16 UNL     1       2.014   5.848 -11.103  1.00  0.00     0.004 C 
BRANCH   9  10
HETATM   10  C17 UNL     1       2.733   4.729 -10.345  1.00  0.00    -0.000 C 
BRANCH  10  11
HETATM   11  C18 UNL     1       2.384   3.329 -10.853  1.00  0.00    -0.005 C 
HETATM   12  C19 UNL     1       1.847   2.406  -9.770  1.00  0.00     0.005 C 
ENDBRANCH  10  11
ENDBRANCH   9  10
ENDBRANCH   8   9
ENDBRANCH   7   8
ENDBRANCH   5   6
ENDBRANCH   4   5
ENDBRANCH   2   3
ENDBRANCH   1   2
BRANCH   1  13
HETATM   13  C4  UNL     1      -0.534   1.953 -12.608  1.00  0.00     0.005 C 
HETATM   14  C6  UNL     1      -1.444   2.770 -12.055  1.00  0.00    -0.002 C 
BRANCH  14  15
HETATM   15  C7  UNL     1      -1.651   2.858 -10.627  1.00  0.00    -0.004 C 
HETATM   16  C8  UNL     1      -2.001   3.961  -9.947  1.00  0.00    -0.027 C 
BRANCH  16  17
HETATM   17  C9  UNL     1      -2.303   5.326 -10.499  1.00  0.00     0.027 C 
BRANCH  17  18
HETATM   18  C10 UNL     1      -1.504   6.460  -9.849  1.00  0.00     0.014 C 
BRANCH  18  19
HETATM   19  C11 UNL     1      -0.802   6.065  -8.551  1.00  0.00     0.110 C 
BRANCH  19  20
HETATM   20  C20 UNL     1      -0.851   7.156  -7.518  1.00  0.00     0.139 C 
HETATM   21  O2  UNL     1      -0.384   7.114  -6.393  1.00  0.00    -0.650 OA
BRANCH  20  22
HETATM   22  O3  UNL     1      -1.473   8.267  -7.960  1.00  0.00    -0.776 OA
HETATM   23  H32 UNL     1      -0.754   8.775  -8.391  1.00  0.00     0.167 HD
ENDBRANCH  20  22
ENDBRANCH  19  20
ENDBRANCH  18  19
ENDBRANCH  17  18
ENDBRANCH  16  17
ENDBRANCH  14  15
ENDBRANCH   1  13
BRANCH   1  24
HETATM   24  O1  UNL     1      -0.842   0.614 -14.542  1.00  0.00    -0.391 OA
HETATM   25  H11 UNL     1      -0.542  -0.075 -13.926  1.00  0.00     0.210 HD
ENDBRANCH   1  24
TORSDOF 16
ENDMDL
MODEL 2
REMARK VINA RESULT:      -6.0      3.341      4.348
REMARK  16 active torsions:
REMARK  status: ('A' for Active; 'I' for Inactive)
REMARK    1  A    between atoms: C1_1  and  C2_2 
REMARK    2  A    between atoms: C1_1  and  C5_5 
REMARK    3  A    between atoms: C3_3  and  C12_13 
REMARK    4  A    between atoms: C4_4  and  C5_5 
REMARK    5  A    between atoms: C5_5  and  O1_6 
REMARK    6  A    between atoms: C6_7  and  C7_8 
REMARK    7  A    between atoms: C8_9  and  C9_10 
REMARK    8  A    between atoms: C9_10  and  C10_11 
REMARK    9  A    between atoms: C10_11  and  C11_12 
REMARK   10  A    between atoms: C11_12  and  C20_21 
REMARK   11  A    between atoms: C12_13  and  C13_14 
REMARK   12  A    between atoms: C14_15  and  C15_16 
REMARK   13  A    between atoms: C15_16  and  C16_17 
REMARK   14  A    between atoms: C16_17  and  C17_18 
REMARK   15  A    between atoms: C17_18  and  C18_19 
REMARK   16  A    between atoms: C20_21  and  O3_23 
ROOT
HETATM    1  C5  UNL     1      -0.259   2.021 -14.315  1.00  0.00     0.144 C 
ENDROOT
BRANCH   1   2
HETATM    2  C1  UNL     1      -0.838   3.059 -15.299  1.00  0.00     0.062 C 
BRANCH   2   3
HETATM    3  C2  UNL     1       0.137   3.564 -16.337  1.00  0.00    -0.027 C 
HETATM    4  C3  UNL     1       1.257   4.277 -16.124  1.00  0.00    -0.027 C 
BRANCH   4   5
HETATM    5  C12 UNL     1       1.840   4.703 -14.806  1.00  0.00     0.053 C 
BRANCH   5   6
HETATM    6  C13 UNL     1       1.563   6.154 -14.542  1.00  0.00    -0.027 C 
HETATM    7  C14 UNL     1       1.028   6.710 -13.441  1.00  0.00    -0.030 C 
BRANCH   7   8
HETATM    8  C15 UNL     1       0.573   6.015 -12.191  1.00  0.00     0.027 C 
BRANCH   8   9
HETATM    9  C16 UNL     1       1.727   5.860 -11.197  1.00  0.00     0.004 C 
BRANCH   9  10
HETATM   10  C17 UNL     1       2.224   4.413 -11.146  1.00  0.00    -0.000 C 
BRANCH  10  11
HETATM   11  C18 UNL     1       1.952   3.725  -9.807  1.00  0.00    -0.005 C 
HETATM   12  C19 UNL     1       1.916   2.207  -9.901  1.00  0.00     0.005 C 
ENDBRANCH  10  11
ENDBRANCH   9  10
ENDBRANCH   8   9
ENDBRANCH   7   8
ENDBRANCH   5   6
ENDBRANCH   4   5
ENDBRANCH   2   3
ENDBRANCH   1   2
BRANCH   1  13
HETATM   13  C4  UNL     1      -0.343   2.427 -12.870  1.00  0.00     0.005 C 
HETATM   14  C6  UNL     1      -1.463   2.879 -12.286  1.00  0.00    -0.002 C 
BRANCH  14  15
HETATM   15  C7  UNL     1      -1.515   3.273 -10.896  1.00  0.00    -0.004 C 
HETATM   16  C8  UNL     1      -1.904   2.498  -9.871  1.00  0.00    -0.027 C 
BRANCH  16  17
HETATM   17  C9  UNL     1      -2.320   1.055  -9.913  1.00  0.00     0.027 C 
BRANCH  17  18
HETATM   18  C10 UNL     1      -1.153   0.064  -9.975  1.00  0.00     0.014 C 
BRANCH  18  19
HETATM   19  C11 UNL     1      -1.279  -0.981 -11.083  1.00  0.00     0.110 C 
BRANCH  19  20
HETATM   20  C20 UNL     1       0.052  -1.353 -11.674  1.00  0.00     0.139 C 
HETATM   21  O2  UNL     1       1.055  -1.672 -11.060  1.00  0.00    -0.650 OA
BRANCH  20  22
HETATM   22  O3  UNL     1       0.052  -1.326 -13.021  1.00  0.00    -0.776 OA
HETATM   23  H32 UNL     1      -0.238  -0.412 -13.231  1.00  0.00     0.167 HD
ENDBRANCH  20  22
ENDBRANCH  19  20
ENDBRANCH  18  19
ENDBRANCH  17  18
ENDBRANCH  16  17
ENDBRANCH  14  15
ENDBRANCH   1  13
BRANCH   1  24
HETATM   24  O1  UNL     1      -0.928   0.769 -14.464  1.00  0.00    -0.391 OA
HETATM   25  H11 UNL     1      -0.950   0.352 -13.586  1.00  0.00     0.210 HD
ENDBRANCH   1  24
TORSDOF 16
ENDMDL
