MODEL 1
REMARK VINA RESULT:      -7.3      0.000      0.000
REMARK  7 active torsions:
REMARK  status: ('A' for Active; 'I' for Inactive)
REMARK    1  A    between atoms: C1_1  and  O1_9 
REMARK    2  A    between atoms: C10_12  and  C13_15 
REMARK    3  A    between atoms: C13_15  and  C14_16 
REMARK    4  A    between atoms: C14_16  and  C15_17 
REMARK    5  A    between atoms: C15_17  and  C16_18 
REMARK    6  A    between atoms: C16_18  and  C17_19 
REMARK    7  A    between atoms: C17_19  and  O3_22 
ROOT
HETATM    1  C1  UNL     1      -0.382   2.015  -9.906  1.00  0.00     0.078 A 
HETATM    2  C2  UNL     1       0.911   2.528  -9.699  1.00  0.00    -0.020 A 
HETATM    3  C3  UNL     1       1.593   3.101 -10.796  1.00  0.00    -0.019 A 
HETATM    4  C4  UNL     1       1.015   3.040 -12.083  1.00  0.00     0.083 A 
HETATM    5  C5  UNL     1      -0.243   2.452 -12.288  1.00  0.00    -0.015 A 
HETATM    6  C6  UNL     1      -0.975   1.976 -11.180  1.00  0.00    -0.019 A 
HETATM    7  C7  UNL     1       2.957   3.726 -10.620  1.00  0.00     0.052 C 
HETATM    8  C8  UNL     1       1.544   2.493  -8.331  1.00  0.00     0.052 C 
HETATM    9  C9  UNL     1      -2.347   1.375 -11.354  1.00  0.00     0.052 C 
HETATM   10  O2  UNL     1       1.771   3.563 -13.103  1.00  0.00    -0.339 OA
HETATM   11  C10 UNL     1       1.153   3.753 -14.395  1.00  0.00     0.064 C 
HETATM   12  C11 UNL     1       0.263   2.553 -14.732  1.00  0.00     0.043 C 
HETATM   13  C12 UNL     1      -0.815   2.369 -13.679  1.00  0.00     0.045 C 
HETATM   14  C19 UNL     1       2.348   3.773 -15.364  1.00  0.00     0.046 C 
ENDROOT
BRANCH  11  15
HETATM   15  C13 UNL     1       0.432   5.128 -14.371  1.00  0.00     0.038 C 
BRANCH  15  16
HETATM   16  C14 UNL     1       1.255   6.415 -14.516  1.00  0.00     0.004 C 
BRANCH  16  17
HETATM   17  C15 UNL     1       0.816   7.577 -13.624  1.00  0.00     0.015 C 
BRANCH  17  18
HETATM   18  C16 UNL     1       1.987   8.233 -12.873  1.00  0.00     0.079 C 
HETATM   19  C18 UNL     1       2.808   7.246 -12.046  1.00  0.00     0.021 C 
BRANCH  18  20
HETATM   20  C17 UNL     1       2.886   8.951 -13.855  1.00  0.00     0.143 C 
HETATM   21  O4  UNL     1       2.533   9.811 -14.646  1.00  0.00    -0.650 OA
BRANCH  20  22
HETATM   22  O3  UNL     1       4.170   8.554 -13.804  1.00  0.00    -0.776 OA
HETATM   23  H28 UNL     1       4.124   7.583 -13.934  1.00  0.00     0.167 HD
ENDBRANCH  20  22
ENDBRANCH  18  20
ENDBRANCH  17  18
ENDBRANCH  16  17
ENDBRANCH  15  16
ENDBRANCH  11  15
BRANCH   1  24
HETATM   24  O1  UNL     1      -1.122   1.525  -8.860  1.00  0.00    -0.360 OA
HETATM   25  H7  UNL     1      -0.713   1.811  -8.028  1.00  0.00     0.217 HD
ENDBRANCH   1  24
TORSDOF 7
ENDMDL
MODEL 2
REMARK VINA RESULT:      -7.3      2.432      6.570
REMARK  7 active torsions:
REMARK  status: ('A' for Active; 'I' for Inactive)
REMARK    1  A    between atoms: C1_1  and  O1_9 
REMARK    2  A    between atoms: C10_12  and  C13_15 
REMARK    3  A    between atoms: C13_15  and  C14_16 
REMARK    4  A    between atoms: C14_16  and  C15_17 
REMARK    5  A    between atoms: C15_17  and  C16_18 
REMARK    6  A    between atoms: C16_18  and  C17_19 
REMARK    7  A    between atoms: C17_19  and  O3_22 
ROOT
HETATM    1  C1  UNL     1       0.249   2.377 -15.094  1.00  0.00     0.078 A 
HETATM    2  C2  UNL     1       0.796   3.649 -15.339  1.00  0.00    -0.020 A 
HETATM    3  C3  UNL     1       0.830   4.585 -14.281  1.00  0.00    -0.019 A 
HETATM    4  C4  UNL     1       0.214   4.265 -13.051  1.00  0.00     0.083 A 
HETATM    5  C5  UNL     1      -0.400   3.020 -12.847  1.00  0.00    -0.015 A 
HETATM    6  C6  UNL     1      -0.341   2.043 -13.863  1.00  0.00    -0.019 A 
HETATM    7  C7  UNL     1       1.465   5.943 -14.467  1.00  0.00     0.052 C 
HETATM    8  C8  UNL     1       1.360   3.997 -16.694  1.00  0.00     0.052 C 
HETATM    9  C9  UNL     1      -0.953   0.679 -13.666  1.00  0.00     0.052 C 
HETATM   10  O2  UNL     1       0.237   5.253 -12.098  1.00  0.00    -0.339 OA
HETATM   11  C10 UNL     1      -0.155   4.921 -10.747  1.00  0.00     0.064 C 
HETATM   12  C11 UNL     1      -1.379   4.000 -10.768  1.00  0.00     0.043 C 
HETATM   13  C12 UNL     1      -1.081   2.725 -11.536  1.00  0.00     0.045 C 
HETATM   14  C19 UNL     1      -0.565   6.278 -10.149  1.00  0.00     0.046 C 
ENDROOT
BRANCH  11  15
HETATM   15  C13 UNL     1       1.095   4.347 -10.025  1.00  0.00     0.038 C 
BRANCH  15  16
HETATM   16  C14 UNL     1       0.910   3.364  -8.862  1.00  0.00     0.004 C 
BRANCH  16  17
HETATM   17  C15 UNL     1       1.638   2.027  -9.012  1.00  0.00     0.015 C 
BRANCH  17  18
HETATM   18  C16 UNL     1       0.692   0.817  -8.933  1.00  0.00     0.079 C 
HETATM   19  C18 UNL     1       0.743  -0.076 -10.170  1.00  0.00     0.021 C 
BRANCH  18  20
HETATM   20  C17 UNL     1       1.009   0.002  -7.699  1.00  0.00     0.143 C 
HETATM   21  O4  UNL     1       0.483  -1.055  -7.387  1.00  0.00    -0.650 OA
BRANCH  20  22
HETATM   22  O3  UNL     1       1.955   0.551  -6.916  1.00  0.00    -0.776 OA
HETATM   23  H28 UNL     1       1.559   1.399  -6.622  1.00  0.00     0.167 HD
ENDBRANCH  20  22
ENDBRANCH  18  20
ENDBRANCH  17  18
ENDBRANCH  16  17
ENDBRANCH  15  16
ENDBRANCH  11  15
BRANCH   1  24
HETATM   24  O1  UNL     1       0.267   1.404 -16.059  1.00  0.00    -0.360 OA
HETATM   25  H7  UNL     1      -0.242   1.715 -16.825  1.00  0.00     0.217 HD
ENDBRANCH   1  24
TORSDOF 7
ENDMDL
