MODEL 1
REMARK VINA RESULT:      -6.4      0.000      0.000
REMARK  16 active torsions:
REMARK  status: ('A' for Active; 'I' for Inactive)
REMARK    1  A    between atoms: C1_1  and  C2_2 
REMARK    2  A    between atoms: C1_1  and  C5_5 
REMARK    3  A    between atoms: C3_3  and  C12_13 
REMARK    4  A    between atoms: C4_4  and  C5_5 
REMARK    5  A    between atoms: C5_5  and  O1_6 
REMARK    6  A    between atoms: C6_7  and  C7_8 
REMARK    7  A    between atoms: C8_9  and  C9_10 
REMARK    8  A    between atoms: C9_10  and  C10_11 
REMARK    9  A    between atoms: C10_11  and  C11_12 
REMARK   10  A    between atoms: C11_12  and  C20_21 
REMARK   11  A    between atoms: C12_13  and  C13_14 
REMARK   12  A    between atoms: C14_15  and  C15_16 
REMARK   13  A    between atoms: C15_16  and  C16_17 
REMARK   14  A    between atoms: C16_17  and  C17_18 
REMARK   15  A    between atoms: C17_18  and  C18_19 
REMARK   16  A    between atoms: C20_21  and  O3_23 
ROOT
HETATM    1  C5  UNL     1      -0.490  -0.188 -13.528  1.00  0.00     0.144 C 
ENDROOT
BRANCH   1   2
HETATM    2  C1  UNL     1      -0.838  -0.333 -12.033  1.00  0.00     0.062 C 
BRANCH   2   3
HETATM    3  C2  UNL     1       0.226  -1.005 -11.196  1.00  0.00    -0.027 C 
HETATM    4  C3  UNL     1       0.822  -0.519 -10.093  1.00  0.00    -0.027 C 
BRANCH   4   5
HETATM    5  C12 UNL     1       0.535   0.781  -9.396  1.00  0.00     0.053 C 
BRANCH   5   6
HETATM    6  C13 UNL     1       1.690   1.731  -9.528  1.00  0.00    -0.027 C 
HETATM    7  C14 UNL     1       1.915   2.626 -10.504  1.00  0.00    -0.030 C 
BRANCH   7   8
HETATM    8  C15 UNL     1       1.057   2.905 -11.706  1.00  0.00     0.027 C 
BRANCH   8   9
HETATM    9  C16 UNL     1       0.024   4.013 -11.467  1.00  0.00     0.004 C 
BRANCH   9  10
HETATM   10  C17 UNL     1      -1.414   3.491 -11.373  1.00  0.00    -0.000 C 
BRANCH  10  11
HETATM   11  C18 UNL     1      -1.898   3.311  -9.932  1.00  0.00    -0.005 C 
HETATM   12  C19 UNL     1      -1.310   4.323  -8.959  1.00  0.00     0.005 C 
ENDBRANCH  10  11
ENDBRANCH   9  10
ENDBRANCH   8   9
ENDBRANCH   7   8
ENDBRANCH   5   6
ENDBRANCH   4   5
ENDBRANCH   2   3
ENDBRANCH   1   2
BRANCH   1  13
HETATM   13  C4  UNL     1      -0.956   1.109 -14.131  1.00  0.00     0.005 C 
HETATM   14  C6  UNL     1      -0.249   1.813 -15.029  1.00  0.00    -0.002 C 
BRANCH  14  15
HETATM   15  C7  UNL     1      -0.719   3.061 -15.586  1.00  0.00    -0.004 C 
HETATM   16  C8  UNL     1       0.045   4.096 -15.968  1.00  0.00    -0.027 C 
BRANCH  16  17
HETATM   17  C9  UNL     1       1.540   4.227 -15.871  1.00  0.00     0.027 C 
BRANCH  17  18
HETATM   18  C10 UNL     1       2.003   4.943 -14.600  1.00  0.00     0.014 C 
BRANCH  18  19
HETATM   19  C11 UNL     1       1.182   6.186 -14.276  1.00  0.00     0.110 C 
BRANCH  19  20
HETATM   20  C20 UNL     1       2.082   7.324 -13.893  1.00  0.00     0.139 C 
HETATM   21  O2  UNL     1       3.279   7.257 -13.672  1.00  0.00    -0.650 OA
BRANCH  20  22
HETATM   22  O3  UNL     1       1.424   8.493 -13.782  1.00  0.00    -0.776 OA
HETATM   23  H32 UNL     1       2.135   9.169 -13.821  1.00  0.00     0.167 HD
ENDBRANCH  20  22
ENDBRANCH  19  20
ENDBRANCH  18  19
ENDBRANCH  17  18
ENDBRANCH  16  17
ENDBRANCH  14  15
ENDBRANCH   1  13
BRANCH   1  24
HETATM   24  O1  UNL     1      -1.050  -1.267 -14.275  1.00  0.00    -0.391 OA
HETATM   25  H11 UNL     1      -1.326  -0.910 -15.135  1.00  0.00     0.210 HD
ENDBRANCH   1  24
TORSDOF 16
ENDMDL
MODEL 2
REMARK VINA RESULT:      -6.2      0.830      1.957
REMARK  16 active torsions:
REMARK  status: ('A' for Active; 'I' for Inactive)
REMARK    1  A    between atoms: C1_1  and  C2_2 
REMARK    2  A    between atoms: C1_1  and  C5_5 
REMARK    3  A    between atoms: C3_3  and  C12_13 
REMARK    4  A    between atoms: C4_4  and  C5_5 
REMARK    5  A    between atoms: C5_5  and  O1_6 
REMARK    6  A    between atoms: C6_7  and  C7_8 
REMARK    7  A    between atoms: C8_9  and  C9_10 
REMARK    8  A    between atoms: C9_10  and  C10_11 
REMARK    9  A    between atoms: C10_11  and  C11_12 
REMARK   10  A    between atoms: C11_12  and  C20_21 
REMARK   11  A    between atoms: C12_13  and  C13_14 
REMARK   12  A    between atoms: C14_15  and  C15_16 
REMARK   13  A    between atoms: C15_16  and  C16_17 
REMARK   14  A    between atoms: C16_17  and  C17_18 
REMARK   15  A    between atoms: C17_18  and  C18_19 
REMARK   16  A    between atoms: C20_21  and  O3_23 
ROOT
HETATM    1  C5  UNL     1      -0.469  -0.239 -13.452  1.00  0.00     0.144 C 
ENDROOT
BRANCH   1   2
HETATM    2  C1  UNL     1      -0.884  -0.477 -11.986  1.00  0.00     0.062 C 
BRANCH   2   3
HETATM    3  C2  UNL     1       0.065   0.093 -10.957  1.00  0.00    -0.027 C 
HETATM    4  C3  UNL     1      -0.255   0.768  -9.840  1.00  0.00    -0.027 C 
BRANCH   4   5
HETATM    5  C12 UNL     1      -1.632   1.069  -9.316  1.00  0.00     0.053 C 
BRANCH   5   6
HETATM    6  C13 UNL     1      -1.775   2.525  -8.979  1.00  0.00    -0.027 C 
HETATM    7  C14 UNL     1      -1.813   3.568  -9.825  1.00  0.00    -0.030 C 
BRANCH   7   8
HETATM    8  C15 UNL     1      -1.728   3.534 -11.325  1.00  0.00     0.027 C 
BRANCH   8   9
HETATM    9  C16 UNL     1      -0.323   3.841 -11.857  1.00  0.00     0.004 C 
BRANCH   9  10
HETATM   10  C17 UNL     1       0.460   4.818 -10.973  1.00  0.00    -0.000 C 
BRANCH  10  11
HETATM   11  C18 UNL     1       1.773   4.236 -10.444  1.00  0.00    -0.005 C 
HETATM   12  C19 UNL     1       2.319   3.094 -11.289  1.00  0.00     0.005 C 
ENDBRANCH  10  11
ENDBRANCH   9  10
ENDBRANCH   8   9
ENDBRANCH   7   8
ENDBRANCH   5   6
ENDBRANCH   4   5
ENDBRANCH   2   3
ENDBRANCH   1   2
BRANCH   1  13
HETATM   13  C4  UNL     1      -0.907   1.096 -13.991  1.00  0.00     0.005 C 
HETATM   14  C6  UNL     1      -0.312   1.717 -15.022  1.00  0.00    -0.002 C 
BRANCH  14  15
HETATM   15  C7  UNL     1      -0.751   3.003 -15.514  1.00  0.00    -0.004 C 
HETATM   16  C8  UNL     1       0.041   4.025 -15.874  1.00  0.00    -0.027 C 
BRANCH  16  17
HETATM   17  C9  UNL     1       1.541   4.099 -15.813  1.00  0.00     0.027 C 
BRANCH  17  18
HETATM   18  C10 UNL     1       2.061   4.862 -14.592  1.00  0.00     0.014 C 
BRANCH  18  19
HETATM   19  C11 UNL     1       1.329   6.177 -14.349  1.00  0.00     0.110 C 
BRANCH  19  20
HETATM   20  C20 UNL     1       2.172   7.101 -13.519  1.00  0.00     0.139 C 
HETATM   21  O2  UNL     1       3.381   7.242 -13.595  1.00  0.00    -0.650 OA
BRANCH  20  22
HETATM   22  O3  UNL     1       1.453   7.787 -12.610  1.00  0.00    -0.776 OA
HETATM   23  H32 UNL     1       0.523   7.622 -12.874  1.00  0.00     0.167 HD
ENDBRANCH  20  22
ENDBRANCH  19  20
ENDBRANCH  18  19
ENDBRANCH  17  18
ENDBRANCH  16  17
ENDBRANCH  14  15
ENDBRANCH   1  13
BRANCH   1  24
HETATM   24  O1  UNL     1      -0.995  -1.266 -14.290  1.00  0.00    -0.391 OA
HETATM   25  H11 UNL     1      -1.039  -2.078 -13.760  1.00  0.00     0.210 HD
ENDBRANCH   1  24
TORSDOF 16
ENDMDL
