MODEL 1
REMARK VINA RESULT:      -8.3      0.000      0.000
REMARK  3 active torsions:
REMARK  status: ('A' for Active; 'I' for Inactive)
REMARK    1  A    between atoms: C6_6  and  N1_11 
REMARK    2  A    between atoms: N2_14  and  C13_18 
REMARK    3  A    between atoms: C13_18  and  C14_19 
ROOT
HETATM    1  N1  UNL     1       0.326   3.832 -11.341  1.00  0.00    -0.227 N 
HETATM    2  S1  UNL     1      -1.135   4.062 -10.486  1.00  0.00     0.060 SA
HETATM    3  C11 UNL     1      -0.736   2.797  -9.338  1.00  0.00     0.311 A 
HETATM    4  N2  UNL     1       0.502   2.308  -9.636  1.00  0.00    -0.254 N 
HETATM    5  C12 UNL     1       1.159   2.898 -10.706  1.00  0.00     0.343 A 
HETATM    6  O1  UNL     1      -1.476   2.461  -8.427  1.00  0.00    -0.258 OA
HETATM    7  O2  UNL     1       2.325   2.643 -10.994  1.00  0.00    -0.245 OA
ENDROOT
BRANCH   1   8
HETATM    8  C6  UNL     1       0.695   4.641 -12.453  1.00  0.00     0.062 A 
HETATM    9  C1  UNL     1       1.111   5.964 -12.205  1.00  0.00     0.031 A 
HETATM   10  C2  UNL     1       1.555   6.786 -13.236  1.00  0.00     0.003 A 
HETATM   11  C3  UNL     1       1.578   6.306 -14.539  1.00  0.00     0.012 A 
HETATM   12  C4  UNL     1       1.129   5.013 -14.837  1.00  0.00    -0.024 A 
HETATM   13  C5  UNL     1       0.661   4.159 -13.802  1.00  0.00     0.002 A 
HETATM   14  C7  UNL     1       1.126   4.583 -16.175  1.00  0.00     0.012 A 
HETATM   15  C10 UNL     1       0.131   2.907 -14.209  1.00  0.00     0.014 A 
HETATM   16  C9  UNL     1       0.128   2.493 -15.545  1.00  0.00     0.001 A 
HETATM   17  C8  UNL     1       0.635   3.328 -16.527  1.00  0.00     0.001 A 
ENDBRANCH   1   8
BRANCH   4  18
HETATM   18  C13 UNL     1       1.109   1.252  -8.858  1.00  0.00     0.176 C 
BRANCH  18  19
HETATM   19  C14 UNL     1       0.569  -0.101  -9.259  1.00  0.00    -0.040 A 
HETATM   20  C15 UNL     1      -0.015  -0.946  -8.302  1.00  0.00     0.009 A 
HETATM   21  C16 UNL     1      -0.541  -2.183  -8.681  1.00  0.00     0.001 A 
HETATM   22  C17 UNL     1      -0.495  -2.583 -10.015  1.00  0.00     0.000 A 
HETATM   23  C18 UNL     1       0.073  -1.747 -10.973  1.00  0.00     0.001 A 
HETATM   24  C19 UNL     1       0.599  -0.510 -10.600  1.00  0.00     0.009 A 
ENDBRANCH  18  19
ENDBRANCH   4  18
TORSDOF 3
ENDMDL
MODEL 2
REMARK VINA RESULT:      -8.0      2.423      6.737
REMARK  3 active torsions:
REMARK  status: ('A' for Active; 'I' for Inactive)
REMARK    1  A    between atoms: C6_6  and  N1_11 
REMARK    2  A    between atoms: N2_14  and  C13_18 
REMARK    3  A    between atoms: C13_18  and  C14_19 
ROOT
HETATM    1  N1  UNL     1      -0.691   1.966 -10.089  1.00  0.00    -0.227 N 
HETATM    2  S1  UNL     1       0.957   1.592  -9.834  1.00  0.00     0.060 SA
HETATM    3  C11 UNL     1       1.475   2.799 -10.998  1.00  0.00     0.311 A 
HETATM    4  N2  UNL     1       0.376   3.451 -11.473  1.00  0.00    -0.254 N 
HETATM    5  C12 UNL     1      -0.849   3.065 -10.948  1.00  0.00     0.343 A 
HETATM    6  O1  UNL     1       2.646   2.994 -11.284  1.00  0.00    -0.258 OA
HETATM    7  O2  UNL     1      -1.895   3.658 -11.192  1.00  0.00    -0.245 OA
ENDROOT
BRANCH   1   8
HETATM    8  C6  UNL     1      -1.738   1.339  -9.356  1.00  0.00     0.062 A 
HETATM    9  C1  UNL     1      -1.963   1.752  -8.028  1.00  0.00     0.031 A 
HETATM   10  C2  UNL     1      -3.014   1.234  -7.279  1.00  0.00     0.003 A 
HETATM   11  C3  UNL     1      -3.854   0.280  -7.839  1.00  0.00     0.012 A 
HETATM   12  C4  UNL     1      -3.639  -0.195  -9.138  1.00  0.00    -0.024 A 
HETATM   13  C5  UNL     1      -2.564   0.313  -9.919  1.00  0.00     0.002 A 
HETATM   14  C7  UNL     1      -4.485  -1.194  -9.650  1.00  0.00     0.012 A 
HETATM   15  C10 UNL     1      -2.361  -0.299 -11.184  1.00  0.00     0.014 A 
HETATM   16  C9  UNL     1      -3.206  -1.296 -11.679  1.00  0.00     0.001 A 
HETATM   17  C8  UNL     1      -4.274  -1.737 -10.915  1.00  0.00     0.001 A 
ENDBRANCH   1   8
BRANCH   4  18
HETATM   18  C13 UNL     1       0.486   4.511 -12.450  1.00  0.00     0.176 C 
BRANCH  18  19
HETATM   19  C14 UNL     1       0.630   3.953 -13.846  1.00  0.00    -0.040 A 
HETATM   20  C15 UNL     1       1.777   4.228 -14.608  1.00  0.00     0.009 A 
HETATM   21  C16 UNL     1       1.921   3.687 -15.887  1.00  0.00     0.001 A 
HETATM   22  C17 UNL     1       0.929   2.862 -16.412  1.00  0.00     0.000 A 
HETATM   23  C18 UNL     1      -0.208   2.575 -15.661  1.00  0.00     0.001 A 
HETATM   24  C19 UNL     1      -0.356   3.113 -14.383  1.00  0.00     0.009 A 
ENDBRANCH  18  19
ENDBRANCH   4  18
TORSDOF 3
ENDMDL
