MODEL 1
REMARK VINA RESULT:      -5.6      0.000      0.000
REMARK  12 active torsions:
REMARK  status: ('A' for Active; 'I' for Inactive)
REMARK    1  A    between atoms: C3_3  and  N4_22 
REMARK    2  A    between atoms: C6_6  and  N3_10 
REMARK    3  A    between atoms: N3_10  and  C7_11 
REMARK    4  A    between atoms: C7_11  and  C8_12 
REMARK    5  A    between atoms: C8_12  and  C9_14 
REMARK    6  A    between atoms: C9_14  and  C10_15 
REMARK    7  A    between atoms: C9_14  and  O5_20 
REMARK    8  A    between atoms: C10_15  and  C11_16 
REMARK    9  A    between atoms: C10_15  and  O6_21 
REMARK   10  A    between atoms: C11_16  and  C12_17 
REMARK   11  A    between atoms: C11_16  and  O4_19 
REMARK   12  A    between atoms: C12_17  and  O3_18 
ROOT
HETATM    1  C7  UNL     1       1.914   3.384 -11.277  1.00  0.00     0.173 C 
ENDROOT
BRANCH   1   2
HETATM    2  N3  UNL     1       0.989   4.532 -11.334  1.00  0.00    -0.284 NA
HETATM    3  H3  UNL     1       0.088   4.232 -11.732  1.00  0.00     0.128 HD
BRANCH   2   4
HETATM    4  C6  UNL     1       1.422   5.675 -12.017  1.00  0.00     0.042 A 
HETATM    5  C1  UNL     1       1.476   5.751 -13.432  1.00  0.00     0.028 A 
HETATM    6  C2  UNL     1       1.941   6.882 -14.151  1.00  0.00     0.040 A 
HETATM    7  C3  UNL     1       2.417   8.024 -13.485  1.00  0.00     0.136 A 
HETATM    8  C4  UNL     1       2.406   8.013 -12.082  1.00  0.00     0.152 A 
HETATM    9  C5  UNL     1       1.919   6.841 -11.362  1.00  0.00     0.141 A 
HETATM   10  N1  UNL     1       2.759   8.935 -11.176  1.00  0.00    -0.100 NA
HETATM   11  N2  UNL     1       2.022   7.084 -10.047  1.00  0.00    -0.101 NA
HETATM   12  O1  UNL     1       2.541   8.361  -9.937  1.00  0.00    -0.106 OA
BRANCH   7  13
HETATM   13  N4  UNL     1       2.886   9.178 -14.196  1.00  0.00    -0.113 N 
HETATM   14  O7  UNL     1       3.987   9.071 -14.754  1.00  0.00    -0.532 OA
HETATM   15  O8  UNL     1       2.196  10.202 -14.162  1.00  0.00    -0.532 OA
ENDBRANCH   7  13
ENDBRANCH   2   4
ENDBRANCH   1   2
BRANCH   1  16
HETATM   16  C8  UNL     1       2.020   2.833  -9.853  1.00  0.00     0.171 C 
HETATM   17  O2  UNL     1       1.416   1.816  -9.496  1.00  0.00    -0.294 OA
BRANCH  16  18
HETATM   18  C9  UNL     1       2.905   3.590  -8.863  1.00  0.00     0.220 C 
BRANCH  18  19
HETATM   19  C10 UNL     1       2.062   4.214  -7.742  1.00  0.00     0.185 C 
BRANCH  19  20
HETATM   20  C11 UNL     1       2.858   5.145  -6.809  1.00  0.00     0.173 C 
BRANCH  20  21
HETATM   21  C12 UNL     1       4.189   4.583  -6.299  1.00  0.00     0.198 C 
BRANCH  21  22
HETATM   22  O3  UNL     1       5.260   5.348  -6.853  1.00  0.00    -0.398 OA
HETATM   23  H11 UNL     1       4.867   6.207  -7.106  1.00  0.00     0.209 HD
ENDBRANCH  21  22
ENDBRANCH  20  21
BRANCH  20  24
HETATM   24  O4  UNL     1       3.157   6.361  -7.524  1.00  0.00    -0.391 OA
HETATM   25  H12 UNL     1       3.523   6.083  -8.387  1.00  0.00     0.210 HD
ENDBRANCH  20  24
ENDBRANCH  19  20
BRANCH  19  26
HETATM   26  O6  UNL     1       0.971   4.963  -8.315  1.00  0.00    -0.390 OA
HETATM   27  H14 UNL     1       1.010   5.855  -7.907  1.00  0.00     0.210 HD
ENDBRANCH  19  26
ENDBRANCH  18  19
BRANCH  18  28
HETATM   28  O5  UNL     1       3.649   4.614  -9.524  1.00  0.00    -0.385 OA
HETATM   29  H13 UNL     1       4.132   4.183 -10.257  1.00  0.00     0.210 HD
ENDBRANCH  18  28
ENDBRANCH  16  18
ENDBRANCH   1  16
TORSDOF 12
ENDMDL
MODEL 2
REMARK VINA RESULT:      -5.6      3.609      6.954
REMARK  12 active torsions:
REMARK  status: ('A' for Active; 'I' for Inactive)
REMARK    1  A    between atoms: C3_3  and  N4_22 
REMARK    2  A    between atoms: C6_6  and  N3_10 
REMARK    3  A    between atoms: N3_10  and  C7_11 
REMARK    4  A    between atoms: C7_11  and  C8_12 
REMARK    5  A    between atoms: C8_12  and  C9_14 
REMARK    6  A    between atoms: C9_14  and  C10_15 
REMARK    7  A    between atoms: C9_14  and  O5_20 
REMARK    8  A    between atoms: C10_15  and  C11_16 
REMARK    9  A    between atoms: C10_15  and  O6_21 
REMARK   10  A    between atoms: C11_16  and  C12_17 
REMARK   11  A    between atoms: C11_16  and  O4_19 
REMARK   12  A    between atoms: C12_17  and  O3_18 
ROOT
HETATM    1  C7  UNL     1       1.166   6.802 -13.629  1.00  0.00     0.173 C 
ENDROOT
BRANCH   1   2
HETATM    2  N3  UNL     1       1.885   5.533 -13.843  1.00  0.00    -0.284 NA
HETATM    3  H3  UNL     1       2.273   5.510 -14.797  1.00  0.00     0.128 HD
BRANCH   2   4
HETATM    4  C6  UNL     1       1.177   4.346 -13.619  1.00  0.00     0.042 A 
HETATM    5  C1  UNL     1       1.150   3.691 -12.361  1.00  0.00     0.028 A 
HETATM    6  C2  UNL     1       0.470   2.471 -12.112  1.00  0.00     0.040 A 
HETATM    7  C3  UNL     1      -0.220   1.801 -13.136  1.00  0.00     0.136 A 
HETATM    8  C4  UNL     1      -0.225   2.385 -14.411  1.00  0.00     0.152 A 
HETATM    9  C5  UNL     1       0.478   3.643 -14.645  1.00  0.00     0.141 A 
HETATM   10  N1  UNL     1      -0.802   2.016 -15.564  1.00  0.00    -0.100 NA
HETATM   11  N2  UNL     1       0.325   3.975 -15.934  1.00  0.00    -0.101 NA
HETATM   12  O1  UNL     1      -0.451   2.977 -16.494  1.00  0.00    -0.106 OA
BRANCH   7  13
HETATM   13  N4  UNL     1      -0.917   0.569 -12.901  1.00  0.00    -0.113 N 
HETATM   14  O7  UNL     1      -0.493  -0.427 -13.504  1.00  0.00    -0.532 OA
HETATM   15  O8  UNL     1      -1.909   0.594 -12.165  1.00  0.00    -0.532 OA
ENDBRANCH   7  13
ENDBRANCH   2   4
ENDBRANCH   1   2
BRANCH   1  16
HETATM   16  C8  UNL     1       1.590   7.461 -12.315  1.00  0.00     0.171 C 
HETATM   17  O2  UNL     1       0.943   7.320 -11.271  1.00  0.00    -0.294 OA
BRANCH  16  18
HETATM   18  C9  UNL     1       2.856   8.319 -12.326  1.00  0.00     0.220 C 
BRANCH  18  19
HETATM   19  C10 UNL     1       2.505   9.811 -12.414  1.00  0.00     0.185 C 
BRANCH  19  20
HETATM   20  C11 UNL     1       3.191  10.676 -11.342  1.00  0.00     0.173 C 
BRANCH  20  21
HETATM   21  C12 UNL     1       2.621  12.088 -11.173  1.00  0.00     0.198 C 
BRANCH  21  22
HETATM   22  O3  UNL     1       3.543  12.876 -10.420  1.00  0.00    -0.398 OA
HETATM   23  H11 UNL     1       3.126  13.756 -10.330  1.00  0.00     0.209 HD
ENDBRANCH  21  22
ENDBRANCH  20  21
BRANCH  20  24
HETATM   24  O4  UNL     1       3.063  10.012 -10.068  1.00  0.00    -0.391 OA
HETATM   25  H12 UNL     1       2.103   9.919  -9.909  1.00  0.00     0.210 HD
ENDBRANCH  20  24
ENDBRANCH  19  20
BRANCH  19  26
HETATM   26  O6  UNL     1       2.866  10.319 -13.714  1.00  0.00    -0.390 OA
HETATM   27  H14 UNL     1       3.449  11.091 -13.552  1.00  0.00     0.210 HD
ENDBRANCH  19  26
ENDBRANCH  18  19
BRANCH  18  28
HETATM   28  O5  UNL     1       3.701   7.965 -13.421  1.00  0.00    -0.385 OA
HETATM   29  H13 UNL     1       3.824   8.775 -13.955  1.00  0.00     0.210 HD
ENDBRANCH  18  28
ENDBRANCH  16  18
ENDBRANCH   1  16
TORSDOF 12
ENDMDL
