MODEL 1
REMARK VINA RESULT:      -8.5      0.000      0.000
REMARK  LENOLISIB
REMARK  6 active torsions:
REMARK  status: ('A' for Active; 'I' for Inactive)
REMARK    1  A    between atoms: O_5  and  C_30 
REMARK       I    between atoms: N_6  and  C_19 
REMARK    2  A    between atoms: N_7  and  C_12 
REMARK    3  A    between atoms: N_7  and  C_17 
REMARK    4  A    between atoms: N_8  and  C_24 
REMARK    5  A    between atoms: C_19  and  C_23 
REMARK    6  A    between atoms: C_29  and  C_31 
ROOT
ATOM      1  F           0       2.218   8.639 -15.406  0.00  0.00    -0.166 F 
ATOM      2  F           0       2.396  10.547 -14.380  0.00  0.00    -0.166 F 
ATOM      3  F           0       4.164   9.343 -14.739  0.00  0.00    -0.166 F 
ATOM      4  C           0       2.851   9.259 -14.368  0.00  0.00     0.421 C 
ENDROOT
BRANCH   4   5
ATOM      5  C           0       2.639   8.561 -13.068  0.00  0.00     0.102 A 
ATOM      6  C           0       2.266   7.223 -13.045  0.00  0.00     0.051 A 
ATOM      7  C           0       2.070   6.583 -11.827  0.00  0.00     0.049 A 
ATOM      8  C           0       2.258   7.320 -10.668  0.00  0.00     0.148 A 
ATOM      9  N           0       2.621   8.623 -10.652  0.00  0.00    -0.234 NA
ATOM     10  C           0       2.803   9.211 -11.855  0.00  0.00     0.179 A 
BRANCH   7  11
ATOM     11  N           0       1.691   5.235 -11.773  0.00  0.00    -0.375 N 
ATOM     12  C           0       2.155   4.413 -10.642  0.00  0.00     0.167 C 
ATOM     13  C           0       1.438   3.102 -10.503  0.00  0.00     0.030 A 
ATOM     14  C           0       1.425   2.382  -9.320  0.00  0.00     0.135 A 
ATOM     15  C           0       0.794   2.502 -11.573  0.00  0.00     0.049 A 
ATOM     16  N           0       0.821   1.183  -9.176  0.00  0.00    -0.224 NA
ATOM     17  C           0       0.226   0.711 -10.286  0.00  0.00     0.235 A 
ATOM     18  N           0       0.179   1.302 -11.495  0.00  0.00    -0.246 NA
ATOM     19  C           0       0.806   3.210 -12.894  0.00  0.00     0.080 C 
ATOM     20  C           0       0.665   4.717 -12.687  0.00  0.00     0.129 C 
BRANCH  14  21
ATOM     21  N           0       2.076   2.899  -8.215  0.00  0.00    -0.368 N 
ATOM     22  H           0       3.037   2.606  -8.072  0.00  0.00     0.161 HD
BRANCH  21  23
ATOM     23  C           0       1.391   3.383  -7.034  0.00  0.00     0.102 C 
ATOM     24  C           0       2.066   4.651  -6.518  0.00  0.00     0.046 C 
ATOM     25  C           0       1.471   5.753  -7.386  0.00  0.00     0.128 C 
ATOM     26  N           0       0.143   5.271  -7.734  0.00  0.00    -0.350 N 
ATOM     27  C           0      -0.015   3.859  -7.389  0.00  0.00     0.150 C 
ATOM     28  C           0      -0.808   6.091  -8.315  0.00  0.00     0.219 C 
ATOM     29  O           0      -0.621   7.278  -8.585  0.00  0.00    -0.273 OA
BRANCH  28  30
ATOM     30  C           0      -2.131   5.437  -8.621  0.00  0.00     0.098 C 
ATOM     31  C           0      -2.211   5.097 -10.090  0.00  0.00     0.014 C 
ENDBRANCH  28  30
ENDBRANCH  21  23
ENDBRANCH  14  21
ENDBRANCH   7  11
BRANCH  10  32
ATOM     32  O           0       3.170  10.532 -11.836  0.00  0.00    -0.339 OA
ATOM     33  C           0       3.434  11.103 -10.561  0.00  0.00     0.211 C 
ENDBRANCH  10  32
ENDBRANCH   4   5
TORSDOF 6
ENDMDL
MODEL 2
REMARK VINA RESULT:      -8.4      2.614      3.652
REMARK  LENOLISIB
REMARK  6 active torsions:
REMARK  status: ('A' for Active; 'I' for Inactive)
REMARK    1  A    between atoms: O_5  and  C_30 
REMARK       I    between atoms: N_6  and  C_19 
REMARK    2  A    between atoms: N_7  and  C_12 
REMARK    3  A    between atoms: N_7  and  C_17 
REMARK    4  A    between atoms: N_8  and  C_24 
REMARK    5  A    between atoms: C_19  and  C_23 
REMARK    6  A    between atoms: C_29  and  C_31 
ROOT
ATOM      1  F           0      -0.326   4.903 -16.201  0.00  0.00    -0.166 F 
ATOM      2  F           0       1.669   4.160 -16.637  0.00  0.00    -0.166 F 
ATOM      3  F           0       0.087   2.770 -16.120  0.00  0.00    -0.166 F 
ATOM      4  C           0       0.606   3.993 -15.795  0.00  0.00     0.421 C 
ENDROOT
BRANCH   4   5
ATOM      5  C           0       0.955   4.131 -14.354  0.00  0.00     0.102 A 
ATOM      6  C           0       0.790   3.057 -13.488  0.00  0.00     0.051 A 
ATOM      7  C           0       1.118   3.198 -12.144  0.00  0.00     0.049 A 
ATOM      8  C           0       1.602   4.425 -11.719  0.00  0.00     0.148 A 
ATOM      9  N           0       1.776   5.492 -12.532  0.00  0.00    -0.234 NA
ATOM     10  C           0       1.448   5.316 -13.831  0.00  0.00     0.179 A 
BRANCH   7  11
ATOM     11  N           0       0.959   2.134 -11.247  0.00  0.00    -0.375 N 
ATOM     12  C           0       1.601   2.219  -9.924  0.00  0.00     0.167 C 
ATOM     13  C           0       1.107   1.203  -8.936  0.00  0.00     0.030 A 
ATOM     14  C           0       1.265   1.355  -7.570  0.00  0.00     0.135 A 
ATOM     15  C           0       0.515   0.017  -9.340  0.00  0.00     0.049 A 
ATOM     16  N           0       0.866   0.441  -6.660  0.00  0.00    -0.224 NA
ATOM     17  C           0       0.300  -0.664  -7.177  0.00  0.00     0.235 A 
ATOM     18  N           0       0.101  -0.939  -8.480  0.00  0.00    -0.246 NA
ATOM     19  C           0       0.352  -0.229 -10.809  0.00  0.00     0.080 C 
ATOM     20  C           0      -0.015   1.071 -11.525  0.00  0.00     0.129 C 
BRANCH  14  21
ATOM     21  N           0       1.879   2.498  -7.090  0.00  0.00    -0.368 N 
ATOM     22  H           0       2.886   2.458  -6.965  0.00  0.00     0.161 HD
BRANCH  21  23
ATOM     23  C           0       1.196   3.508  -6.310  0.00  0.00     0.102 C 
ATOM     24  C           0       2.000   4.806  -6.310  0.00  0.00     0.046 C 
ATOM     25  C           0       1.608   5.471  -7.624  0.00  0.00     0.128 C 
ATOM     26  N           0       0.251   5.012  -7.878  0.00  0.00    -0.350 N 
ATOM     27  C           0      -0.112   3.912  -6.986  0.00  0.00     0.150 C 
ATOM     28  C           0      -0.547   5.582  -8.853  0.00  0.00     0.219 C 
ATOM     29  O           0      -0.191   6.511  -9.579  0.00  0.00    -0.273 OA
BRANCH  28  30
ATOM     30  C           0      -1.925   4.987  -8.997  0.00  0.00     0.098 C 
ATOM     31  C           0      -2.010   4.186 -10.273  0.00  0.00     0.014 C 
ENDBRANCH  28  30
ENDBRANCH  21  23
ENDBRANCH  14  21
ENDBRANCH   7  11
BRANCH  10  32
ATOM     32  O           0       1.624   6.399 -14.654  0.00  0.00    -0.339 OA
ATOM     33  C           0       1.941   7.635 -14.024  0.00  0.00     0.211 C 
ENDBRANCH  10  32
ENDBRANCH   4   5
TORSDOF 6
ENDMDL
