MODEL 1
REMARK VINA RESULT:      -5.2      0.000      0.000
REMARK  CAFEINA
REMARK  0 active torsions:
REMARK  status: ('A' for Active; 'I' for Inactive)
ROOT
ATOM      1  O           0       2.210   5.830 -14.536  0.00  0.00    -0.265 OA
ATOM      2  O           0      -0.428   2.118 -15.667  0.00  0.00    -0.246 OA
ATOM      3  N           0      -0.078   2.569 -13.412  0.00  0.00    -0.263 N 
ATOM      4  N           0       1.699   5.050 -11.693  0.00  0.00    -0.302 N 
ATOM      5  N           0       0.893   3.976 -15.127  0.00  0.00    -0.246 N 
ATOM      6  N           0       0.461   3.287 -11.120  0.00  0.00    -0.206 NA
ATOM      7  C           0       1.282   4.481 -12.861  0.00  0.00     0.153 A 
ATOM      8  C           0       0.526   3.406 -12.482  0.00  0.00     0.170 A 
ATOM      9  C           0       1.530   4.859 -14.215  0.00  0.00     0.283 A 
ATOM     10  C           0       0.086   2.828 -14.795  0.00  0.00     0.335 A 
ATOM     11  C           0       1.180   4.296 -10.673  0.00  0.00     0.180 A 
ATOM     12  C           0      -0.876   1.433 -12.968  0.00  0.00     0.137 C 
ATOM     13  C           0       2.528   6.221 -11.533  0.00  0.00     0.132 C 
ATOM     14  C           0       1.073   4.260 -16.547  0.00  0.00     0.139 C 
ENDROOT
TORSDOF 0
ENDMDL
MODEL 2
REMARK VINA RESULT:      -5.2      2.914      4.857
REMARK  CAFEINA
REMARK  0 active torsions:
REMARK  status: ('A' for Active; 'I' for Inactive)
ROOT
ATOM      1  O           0       2.302   7.851  -9.647  0.00  0.00    -0.265 OA
ATOM      2  O           0       1.134   4.035 -12.114  0.00  0.00    -0.246 OA
ATOM      3  N           0       1.896   5.901 -13.275  0.00  0.00    -0.263 N 
ATOM      4  N           0       2.959   9.090 -12.290  0.00  0.00    -0.302 N 
ATOM      5  N           0       1.711   5.928 -10.861  0.00  0.00    -0.246 N 
ATOM      6  N           0       2.730   8.012 -14.227  0.00  0.00    -0.206 NA
ATOM      7  C           0       2.487   7.846 -11.982  0.00  0.00     0.153 A 
ATOM      8  C           0       2.357   7.208 -13.184  0.00  0.00     0.170 A 
ATOM      9  C           0       2.176   7.262 -10.717  0.00  0.00     0.283 A 
ATOM     10  C           0       1.550   5.199 -12.095  0.00  0.00     0.335 A 
ATOM     11  C           0       3.088   9.142 -13.654  0.00  0.00     0.180 A 
ATOM     12  C           0       1.771   5.255 -14.577  0.00  0.00     0.137 C 
ATOM     13  C           0       3.269  10.163 -11.376  0.00  0.00     0.132 C 
ATOM     14  C           0       1.360   5.222  -9.633  0.00  0.00     0.139 C 
ENDROOT
TORSDOF 0
ENDMDL
