MODEL 1
REMARK VINA RESULT:      -6.2      0.000      0.000
REMARK  15 active torsions:
REMARK  status: ('A' for Active; 'I' for Inactive)
REMARK    1  A    between atoms: C1_1  and  C2_2 
REMARK    2  A    between atoms: C1_1  and  C3_3 
REMARK    3  A    between atoms: C4_4  and  C6_6 
REMARK    4  A    between atoms: C5_5  and  C11_11 
REMARK    5  A    between atoms: C6_6  and  C7_7 
REMARK    6  A    between atoms: C7_7  and  C8_8 
REMARK    7  A    between atoms: C8_8  and  C9_9 
REMARK    8  A    between atoms: C9_9  and  C10_10 
REMARK    9  A    between atoms: C10_10  and  P1_19 
REMARK   10  A    between atoms: C11_11  and  C12_12 
REMARK   11  A    between atoms: C13_13  and  C14_14 
REMARK   12  A    between atoms: C14_14  and  C15_15 
REMARK   13  A    between atoms: C15_15  and  C16_16 
REMARK   14  A    between atoms: C16_16  and  C17_17 
REMARK   15  A    between atoms: P1_19  and  O2_22 
ROOT
HETATM    1  C2  UNL     1      -0.545   1.816 -14.322  1.00  0.00    -0.027 C 
HETATM    2  C4  UNL     1      -0.346   2.298 -15.560  1.00  0.00    -0.030 C 
ENDROOT
BRANCH   1   3
HETATM    3  C1  UNL     1      -0.730   2.600 -13.053  1.00  0.00     0.053 C 
BRANCH   3   4
HETATM    4  C3  UNL     1       0.585   3.119 -12.546  1.00  0.00    -0.027 C 
HETATM    5  C5  UNL     1       1.230   2.762 -11.422  1.00  0.00    -0.027 C 
BRANCH   5   6
HETATM    6  C11 UNL     1       0.822   1.720 -10.421  1.00  0.00     0.053 C 
BRANCH   6   7
HETATM    7  C12 UNL     1       0.481   2.351  -9.101  1.00  0.00    -0.027 C 
HETATM    8  C13 UNL     1      -0.688   2.897  -8.728  1.00  0.00    -0.030 C 
BRANCH   8   9
HETATM    9  C14 UNL     1      -1.936   3.031  -9.555  1.00  0.00     0.027 C 
BRANCH   9  10
HETATM   10  C15 UNL     1      -2.098   4.416 -10.190  1.00  0.00     0.004 C 
BRANCH  10  11
HETATM   11  C16 UNL     1      -2.440   5.512  -9.175  1.00  0.00    -0.000 C 
BRANCH  11  12
HETATM   12  C17 UNL     1      -1.448   6.678  -9.186  1.00  0.00    -0.005 C 
HETATM   13  C18 UNL     1      -0.167   6.379  -9.947  1.00  0.00     0.005 C 
ENDBRANCH  11  12
ENDBRANCH  10  11
ENDBRANCH   9  10
ENDBRANCH   8   9
ENDBRANCH   6   7
ENDBRANCH   5   6
ENDBRANCH   3   4
ENDBRANCH   1   3
BRANCH   2  14
HETATM   14  C6  UNL     1      -0.203   3.740 -15.957  1.00  0.00     0.027 C 
BRANCH  14  15
HETATM   15  C7  UNL     1       1.246   4.157 -16.227  1.00  0.00     0.004 C 
BRANCH  15  16
HETATM   16  C8  UNL     1       1.962   4.863 -15.068  1.00  0.00     0.001 C 
BRANCH  16  17
HETATM   17  C9  UNL     1       1.284   6.127 -14.535  1.00  0.00     0.012 C 
BRANCH  17  18
HETATM   18  C10 UNL     1       1.635   6.505 -13.098  1.00  0.00     0.137 C 
BRANCH  18  19
HETATM   19  P1  UNL     1       2.628   7.985 -12.922  1.00  0.00     0.365 P 
HETATM   20  O1  UNL     1       3.874   7.993 -13.757  1.00  0.00    -0.254 OA
HETATM   21  F1  UNL     1       2.980   8.297 -11.423  1.00  0.00    -0.156 F 
BRANCH  19  22
HETATM   22  O2  UNL     1       1.626   9.195 -13.313  1.00  0.00    -0.316 OA
HETATM   23  C19 UNL     1       2.160  10.487 -13.508  1.00  0.00     0.213 C 
ENDBRANCH  19  22
ENDBRANCH  18  19
ENDBRANCH  17  18
ENDBRANCH  16  17
ENDBRANCH  15  16
ENDBRANCH  14  15
ENDBRANCH   2  14
TORSDOF 15
ENDMDL
MODEL 2
REMARK VINA RESULT:      -6.2      2.198      3.664
REMARK  15 active torsions:
REMARK  status: ('A' for Active; 'I' for Inactive)
REMARK    1  A    between atoms: C1_1  and  C2_2 
REMARK    2  A    between atoms: C1_1  and  C3_3 
REMARK    3  A    between atoms: C4_4  and  C6_6 
REMARK    4  A    between atoms: C5_5  and  C11_11 
REMARK    5  A    between atoms: C6_6  and  C7_7 
REMARK    6  A    between atoms: C7_7  and  C8_8 
REMARK    7  A    between atoms: C8_8  and  C9_9 
REMARK    8  A    between atoms: C9_9  and  C10_10 
REMARK    9  A    between atoms: C10_10  and  P1_19 
REMARK   10  A    between atoms: C11_11  and  C12_12 
REMARK   11  A    between atoms: C13_13  and  C14_14 
REMARK   12  A    between atoms: C14_14  and  C15_15 
REMARK   13  A    between atoms: C15_15  and  C16_16 
REMARK   14  A    between atoms: C16_16  and  C17_17 
REMARK   15  A    between atoms: P1_19  and  O2_22 
ROOT
HETATM    1  C2  UNL     1      -0.639   2.744 -15.637  1.00  0.00    -0.027 C 
HETATM    2  C4  UNL     1       0.284   3.432 -16.331  1.00  0.00    -0.030 C 
ENDROOT
BRANCH   1   3
HETATM    3  C1  UNL     1      -0.426   1.918 -14.400  1.00  0.00     0.053 C 
BRANCH   3   4
HETATM    4  C3  UNL     1      -1.061   2.567 -13.204  1.00  0.00    -0.027 C 
HETATM    5  C5  UNL     1      -0.486   2.857 -12.025  1.00  0.00    -0.027 C 
BRANCH   5   6
HETATM    6  C11 UNL     1       0.947   2.650 -11.627  1.00  0.00     0.053 C 
BRANCH   6   7
HETATM    7  C12 UNL     1       1.043   2.174 -10.206  1.00  0.00    -0.027 C 
HETATM    8  C13 UNL     1       1.021   0.907  -9.759  1.00  0.00    -0.030 C 
BRANCH   8   9
HETATM    9  C14 UNL     1       0.867  -0.344 -10.577  1.00  0.00     0.027 C 
BRANCH   9  10
HETATM   10  C15 UNL     1       0.032  -1.425  -9.883  1.00  0.00     0.004 C 
BRANCH  10  11
HETATM   11  C16 UNL     1      -1.147  -1.916 -10.728  1.00  0.00    -0.000 C 
BRANCH  11  12
HETATM   12  C17 UNL     1      -1.621  -0.889 -11.760  1.00  0.00    -0.005 C 
HETATM   13  C18 UNL     1      -2.779  -0.030 -11.277  1.00  0.00     0.005 C 
ENDBRANCH  11  12
ENDBRANCH  10  11
ENDBRANCH   9  10
ENDBRANCH   8   9
ENDBRANCH   6   7
ENDBRANCH   5   6
ENDBRANCH   3   4
ENDBRANCH   1   3
BRANCH   2  14
HETATM   14  C6  UNL     1       1.761   3.488 -16.063  1.00  0.00     0.027 C 
BRANCH  14  15
HETATM   15  C7  UNL     1       2.150   4.537 -15.015  1.00  0.00     0.004 C 
BRANCH  15  16
HETATM   16  C8  UNL     1       1.182   5.717 -14.865  1.00  0.00     0.001 C 
BRANCH  16  17
HETATM   17  C9  UNL     1       1.007   6.262 -13.446  1.00  0.00     0.012 C 
BRANCH  17  18
HETATM   18  C10 UNL     1       0.654   7.744 -13.350  1.00  0.00     0.137 C 
BRANCH  18  19
HETATM   19  P1  UNL     1       2.026   8.870 -13.596  1.00  0.00     0.365 P 
HETATM   20  O1  UNL     1       1.672  10.318 -13.422  1.00  0.00    -0.254 OA
HETATM   21  F1  UNL     1       2.742   8.650 -14.977  1.00  0.00    -0.156 F 
BRANCH  19  22
HETATM   22  O2  UNL     1       3.144   8.385 -12.531  1.00  0.00    -0.316 OA
HETATM   23  C19 UNL     1       2.762   8.174 -11.189  1.00  0.00     0.213 C 
ENDBRANCH  19  22
ENDBRANCH  18  19
ENDBRANCH  17  18
ENDBRANCH  16  17
ENDBRANCH  15  16
ENDBRANCH  14  15
ENDBRANCH   2  14
TORSDOF 15
ENDMDL
