MODEL 1
REMARK VINA RESULT:      -7.5      0.000      0.000
REMARK  15 active torsions:
REMARK  status: ('A' for Active; 'I' for Inactive)
REMARK    1  A    between atoms: C2_2  and  O2_7 
REMARK    2  A    between atoms: C3_3  and  C7_9 
REMARK    3  A    between atoms: C4_4  and  C6_8 
REMARK    4  A    between atoms: C5_5  and  O1_6 
REMARK    5  A    between atoms: C6_8  and  C9_11 
REMARK    6  A    between atoms: C8_10  and  C10_12 
REMARK    7  A    between atoms: C10_12  and  C12_14 
REMARK    8  A    between atoms: C10_12  and  O3_24 
REMARK    9  A    between atoms: C11_13  and  C13_15 
REMARK   10  A    between atoms: C12_14  and  C19_22 
REMARK   11  A    between atoms: C13_15  and  C14_16 
REMARK   12  A    between atoms: C14_16  and  C15_17 
REMARK   13  A    between atoms: C15_17  and  C16_18 
REMARK       I    between atoms: C16_18  and  N1_19 
REMARK   14  A    between atoms: N1_19  and  C17_20 
REMARK   15  A    between atoms: C19_22  and  C20_23 
ROOT
HETATM    1  C1  UNL     1       0.048  -1.012 -11.684  1.00  0.00     0.064 C 
HETATM    2  C2  UNL     1      -0.951  -0.655 -12.788  1.00  0.00     0.128 C 
HETATM    3  C3  UNL     1      -1.032   0.887 -12.828  1.00  0.00     0.043 C 
HETATM    4  C4  UNL     1      -0.633   1.309 -11.390  1.00  0.00     0.028 C 
HETATM    5  C5  UNL     1       0.509   0.321 -11.093  1.00  0.00     0.125 C 
ENDROOT
BRANCH   3   6
HETATM    6  C7  UNL     1      -0.146   1.593 -13.845  1.00  0.00    -0.021 C 
HETATM    7  C8  UNL     1      -0.408   1.841 -15.139  1.00  0.00     0.001 C 
BRANCH   7   8
HETATM    8  C10 UNL     1       0.534   2.540 -16.076  1.00  0.00     0.141 C 
BRANCH   8   9
HETATM    9  C12 UNL     1       1.673   3.307 -15.388  1.00  0.00     0.040 C 
BRANCH   9  10
HETATM   10  C19 UNL     1       1.540   4.836 -15.302  1.00  0.00     0.041 C 
BRANCH  10  11
HETATM   11  C20 UNL     1       1.292   5.411 -13.929  1.00  0.00    -0.057 A 
HETATM   12  C21 UNL     1       0.870   6.738 -13.771  1.00  0.00     0.007 A 
HETATM   13  C25 UNL     1       0.651   7.268 -12.498  1.00  0.00     0.002 A 
HETATM   14  C24 UNL     1       0.857   6.480 -11.367  1.00  0.00     0.024 A 
HETATM   15  C23 UNL     1       1.283   5.163 -11.516  1.00  0.00     0.034 A 
HETATM   16  C22 UNL     1       1.510   4.631 -12.784  1.00  0.00     0.031 A 
HETATM   17 CL1  UNL     1       1.537   4.183 -10.124  1.00  0.00    -0.084 Cl
ENDBRANCH  10  11
ENDBRANCH   9  10
ENDBRANCH   8   9
BRANCH   8  18
HETATM   18  O3  UNL     1      -0.234   3.426 -16.879  1.00  0.00    -0.392 OA
HETATM   19  H32 UNL     1       0.088   4.325 -16.699  1.00  0.00     0.210 HD
ENDBRANCH   8  18
ENDBRANCH   7   8
ENDBRANCH   3   6
BRANCH   2  20
HETATM   20  O2  UNL     1      -2.238  -1.183 -12.459  1.00  0.00    -0.395 OA
HETATM   21  H8  UNL     1      -2.810  -1.069 -13.237  1.00  0.00     0.210 HD
ENDBRANCH   2  20
BRANCH   4  22
HETATM   22  C6  UNL     1      -1.827   1.220 -10.412  1.00  0.00     0.034 C 
BRANCH  22  23
HETATM   23  C9  UNL     1      -1.681   2.159  -9.243  1.00  0.00    -0.030 C 
HETATM   24  C11 UNL     1      -1.826   3.494  -9.236  1.00  0.00    -0.031 C 
BRANCH  24  25
HETATM   25  C13 UNL     1      -2.188   4.390 -10.387  1.00  0.00     0.027 C 
BRANCH  25  26
HETATM   26  C14 UNL     1      -2.373   5.835  -9.918  1.00  0.00     0.013 C 
BRANCH  26  27
HETATM   27  C15 UNL     1      -2.346   5.958  -8.394  1.00  0.00     0.103 C 
BRANCH  27  28
HETATM   28  C16 UNL     1      -1.320   6.953  -7.885  1.00  0.00     0.217 C 
HETATM   29  N1  UNL     1      -0.031   6.457  -7.925  1.00  0.00    -0.361 N 
HETATM   30  H24 UNL     1       0.142   5.654  -8.516  1.00  0.00     0.162 HD
HETATM   31  O4  UNL     1      -1.601   8.066  -7.458  1.00  0.00    -0.274 OA
BRANCH  29  32
HETATM   32  C17 UNL     1       1.095   7.305  -7.591  1.00  0.00     0.118 C 
HETATM   33  C18 UNL     1       2.321   6.485  -7.243  1.00  0.00     0.026 C 
ENDBRANCH  29  32
ENDBRANCH  27  28
ENDBRANCH  26  27
ENDBRANCH  25  26
ENDBRANCH  24  25
ENDBRANCH  22  23
ENDBRANCH   4  22
BRANCH   5  34
HETATM   34  O1  UNL     1       0.816   0.195  -9.719  1.00  0.00    -0.395 OA
HETATM   35  H7  UNL     1       1.734   0.491  -9.589  1.00  0.00     0.210 HD
ENDBRANCH   5  34
TORSDOF 15
ENDMDL
MODEL 2
REMARK VINA RESULT:      -7.5      2.758      5.324
REMARK  15 active torsions:
REMARK  status: ('A' for Active; 'I' for Inactive)
REMARK    1  A    between atoms: C2_2  and  O2_7 
REMARK    2  A    between atoms: C3_3  and  C7_9 
REMARK    3  A    between atoms: C4_4  and  C6_8 
REMARK    4  A    between atoms: C5_5  and  O1_6 
REMARK    5  A    between atoms: C6_8  and  C9_11 
REMARK    6  A    between atoms: C8_10  and  C10_12 
REMARK    7  A    between atoms: C10_12  and  C12_14 
REMARK    8  A    between atoms: C10_12  and  O3_24 
REMARK    9  A    between atoms: C11_13  and  C13_15 
REMARK   10  A    between atoms: C12_14  and  C19_22 
REMARK   11  A    between atoms: C13_15  and  C14_16 
REMARK   12  A    between atoms: C14_16  and  C15_17 
REMARK   13  A    between atoms: C15_17  and  C16_18 
REMARK       I    between atoms: C16_18  and  N1_19 
REMARK   14  A    between atoms: N1_19  and  C17_20 
REMARK   15  A    between atoms: C19_22  and  C20_23 
ROOT
HETATM    1  C1  UNL     1       1.047   7.793 -12.325  1.00  0.00     0.064 C 
HETATM    2  C2  UNL     1       2.168   7.145 -13.144  1.00  0.00     0.128 C 
HETATM    3  C3  UNL     1       1.973   5.617 -13.027  1.00  0.00     0.043 C 
HETATM    4  C4  UNL     1       1.220   5.449 -11.682  1.00  0.00     0.028 C 
HETATM    5  C5  UNL     1       0.241   6.635 -11.735  1.00  0.00     0.125 C 
ENDROOT
BRANCH   3   6
HETATM    6  C7  UNL     1       1.199   4.938 -14.147  1.00  0.00    -0.021 C 
HETATM    7  C8  UNL     1       1.622   4.654 -15.391  1.00  0.00     0.001 C 
BRANCH   7   8
HETATM    8  C10 UNL     1       0.783   3.986 -16.441  1.00  0.00     0.141 C 
BRANCH   8   9
HETATM    9  C12 UNL     1      -0.420   3.200 -15.897  1.00  0.00     0.040 C 
BRANCH   9  10
HETATM   10  C19 UNL     1      -0.135   1.829 -15.263  1.00  0.00     0.041 C 
BRANCH  10  11
HETATM   11  C20 UNL     1      -0.700   1.598 -13.883  1.00  0.00    -0.057 A 
HETATM   12  C21 UNL     1      -0.876   0.299 -13.387  1.00  0.00     0.007 A 
HETATM   13  C25 UNL     1      -1.409   0.090 -12.112  1.00  0.00     0.002 A 
HETATM   14  C24 UNL     1      -1.776   1.177 -11.321  1.00  0.00     0.024 A 
HETATM   15  C23 UNL     1      -1.611   2.470 -11.811  1.00  0.00     0.034 A 
HETATM   16  C22 UNL     1      -1.087   2.684 -13.084  1.00  0.00     0.031 A 
HETATM   17 CL1  UNL     1      -2.062   3.817 -10.838  1.00  0.00    -0.084 Cl
ENDBRANCH  10  11
ENDBRANCH   9  10
ENDBRANCH   8   9
BRANCH   8  18
HETATM   18  O3  UNL     1       1.630   3.124 -17.188  1.00  0.00    -0.392 OA
HETATM   19  H32 UNL     1       2.466   3.597 -17.329  1.00  0.00     0.210 HD
ENDBRANCH   8  18
ENDBRANCH   7   8
ENDBRANCH   3   6
BRANCH   2  20
HETATM   20  O2  UNL     1       3.435   7.500 -12.585  1.00  0.00    -0.395 OA
HETATM   21  H8  UNL     1       3.838   8.165 -13.168  1.00  0.00     0.210 HD
ENDBRANCH   2  20
BRANCH   4  22
HETATM   22  C6  UNL     1       2.186   5.470 -10.475  1.00  0.00     0.034 C 
BRANCH  22  23
HETATM   23  C9  UNL     1       3.223   4.379 -10.551  1.00  0.00    -0.030 C 
HETATM   24  C11 UNL     1       3.019   3.052 -10.601  1.00  0.00    -0.031 C 
BRANCH  24  25
HETATM   25  C13 UNL     1       1.708   2.319 -10.611  1.00  0.00     0.027 C 
BRANCH  25  26
HETATM   26  C14 UNL     1       1.346   1.827  -9.207  1.00  0.00     0.013 C 
BRANCH  26  27
HETATM   27  C15 UNL     1       0.455   2.818  -8.458  1.00  0.00     0.103 C 
BRANCH  27  28
HETATM   28  C16 UNL     1       1.188   3.595  -7.379  1.00  0.00     0.217 C 
HETATM   29  N1  UNL     1       2.413   3.040  -7.063  1.00  0.00    -0.361 N 
HETATM   30  H24 UNL     1       2.818   2.393  -7.726  1.00  0.00     0.162 HD
HETATM   31  O4  UNL     1       0.734   4.589  -6.826  1.00  0.00    -0.274 OA
BRANCH  29  32
HETATM   32  C17 UNL     1       3.308   3.711  -6.141  1.00  0.00     0.118 C 
HETATM   33  C18 UNL     1       4.273   4.623  -6.873  1.00  0.00     0.026 C 
ENDBRANCH  29  32
ENDBRANCH  27  28
ENDBRANCH  26  27
ENDBRANCH  25  26
ENDBRANCH  24  25
ENDBRANCH  22  23
ENDBRANCH   4  22
BRANCH   5  34
HETATM   34  O1  UNL     1      -0.312   6.980 -10.480  1.00  0.00    -0.395 OA
HETATM   35  H7  UNL     1       0.124   6.437  -9.802  1.00  0.00     0.210 HD
ENDBRANCH   5  34
TORSDOF 15
ENDMDL
