MODEL 1
REMARK VINA RESULT:      -7.0      0.000      0.000
REMARK  16 active torsions:
REMARK  status: ('A' for Active; 'I' for Inactive)
REMARK    1  A    between atoms: C1_1  and  C5_5 
REMARK    2  A    between atoms: C2_2  and  C9_9 
REMARK    3  A    between atoms: C3_3  and  C6_6 
REMARK    4  A    between atoms: C4_4  and  C5_5 
REMARK    5  A    between atoms: C6_6  and  C7_7 
REMARK    6  A    between atoms: C8_8  and  C17_17 
REMARK    7  A    between atoms: C9_9  and  C10_10 
REMARK    8  A    between atoms: C11_11  and  C12_12 
REMARK    9  A    between atoms: C12_12  and  C13_13 
REMARK   10  A    between atoms: C13_13  and  C14_14 
REMARK   11  A    between atoms: C14_14  and  C15_15 
REMARK   12  A    between atoms: C17_17  and  C18_18 
REMARK   13  A    between atoms: C19_19  and  C20_20 
REMARK   14  A    between atoms: C20_20  and  C21_21 
REMARK   15  A    between atoms: C21_21  and  C22_22 
REMARK   16  A    between atoms: C22_22  and  O2_24 
ROOT
HETATM    1  C3  UNL     1      -9.361  10.463 -24.403  1.00  0.00    -0.027 C 
HETATM    2  C4  UNL     1      -9.066  11.322 -23.412  1.00  0.00    -0.027 C 
ENDROOT
BRANCH   1   3
HETATM    3  C6  UNL     1      -8.808   9.084 -24.614  1.00  0.00     0.053 C 
BRANCH   3   4
HETATM    4  C7  UNL     1      -8.018   8.865 -25.877  1.00  0.00    -0.027 C 
HETATM    5  C8  UNL     1      -6.726   9.052 -26.203  1.00  0.00    -0.027 C 
BRANCH   5   6
HETATM    6  C17 UNL     1      -5.580   9.588 -25.391  1.00  0.00     0.053 C 
BRANCH   6   7
HETATM    7  C18 UNL     1      -5.391  11.058 -25.651  1.00  0.00    -0.027 C 
HETATM    8  C19 UNL     1      -4.351  11.834 -25.302  1.00  0.00    -0.030 C 
BRANCH   8   9
HETATM    9  C20 UNL     1      -3.118  11.426 -24.541  1.00  0.00     0.037 C 
BRANCH   9  10
HETATM   10  C21 UNL     1      -3.163  11.870 -23.082  1.00  0.00     0.113 C 
BRANCH  10  11
HETATM   11  C22 UNL     1      -2.808  10.749 -22.146  1.00  0.00     0.139 C 
HETATM   12  O1  UNL     1      -3.223   9.601 -22.198  1.00  0.00    -0.650 OA
BRANCH  11  13
HETATM   13  O2  UNL     1      -1.935  11.123 -21.190  1.00  0.00    -0.776 OA
HETATM   14  H34 UNL     1      -1.056  10.962 -21.596  1.00  0.00     0.167 HD
ENDBRANCH  11  13
ENDBRANCH  10  11
ENDBRANCH   9  10
ENDBRANCH   8   9
ENDBRANCH   6   7
ENDBRANCH   5   6
ENDBRANCH   3   4
ENDBRANCH   1   3
BRANCH   2  15
HETATM   15  C5  UNL     1      -8.109  11.117 -22.270  1.00  0.00     0.053 C 
BRANCH  15  16
HETATM   16  C1  UNL     1      -6.808  11.820 -22.528  1.00  0.00    -0.027 C 
HETATM   17  C2  UNL     1      -6.574  13.142 -22.574  1.00  0.00    -0.027 C 
BRANCH  17  18
HETATM   18  C9  UNL     1      -7.551  14.262 -22.357  1.00  0.00     0.053 C 
BRANCH  18  19
HETATM   19  C10 UNL     1      -7.486  14.772 -20.945  1.00  0.00    -0.027 C 
HETATM   20  C11 UNL     1      -8.318  14.488 -19.930  1.00  0.00    -0.030 C 
BRANCH  20  21
HETATM   21  C12 UNL     1      -9.548  13.629 -19.970  1.00  0.00     0.027 C 
BRANCH  21  22
HETATM   22  C13 UNL     1      -9.471  12.431 -19.020  1.00  0.00     0.004 C 
BRANCH  22  23
HETATM   23  C14 UNL     1     -10.689  12.325 -18.095  1.00  0.00    -0.000 C 
BRANCH  23  24
HETATM   24  C15 UNL     1     -11.189  13.710 -17.682  1.00  0.00    -0.005 C 
HETATM   25  C16 UNL     1     -12.336  13.615 -16.687  1.00  0.00     0.005 C 
ENDBRANCH  23  24
ENDBRANCH  22  23
ENDBRANCH  21  22
ENDBRANCH  20  21
ENDBRANCH  18  19
ENDBRANCH  17  18
ENDBRANCH  15  16
ENDBRANCH   2  15
TORSDOF 16
ENDMDL
MODEL 2
REMARK VINA RESULT:      -6.7     12.892     15.226
REMARK  16 active torsions:
REMARK  status: ('A' for Active; 'I' for Inactive)
REMARK    1  A    between atoms: C1_1  and  C5_5 
REMARK    2  A    between atoms: C2_2  and  C9_9 
REMARK    3  A    between atoms: C3_3  and  C6_6 
REMARK    4  A    between atoms: C4_4  and  C5_5 
REMARK    5  A    between atoms: C6_6  and  C7_7 
REMARK    6  A    between atoms: C8_8  and  C17_17 
REMARK    7  A    between atoms: C9_9  and  C10_10 
REMARK    8  A    between atoms: C11_11  and  C12_12 
REMARK    9  A    between atoms: C12_12  and  C13_13 
REMARK   10  A    between atoms: C13_13  and  C14_14 
REMARK   11  A    between atoms: C14_14  and  C15_15 
REMARK   12  A    between atoms: C17_17  and  C18_18 
REMARK   13  A    between atoms: C19_19  and  C20_20 
REMARK   14  A    between atoms: C20_20  and  C21_21 
REMARK   15  A    between atoms: C21_21  and  C22_22 
REMARK   16  A    between atoms: C22_22  and  O2_24 
ROOT
HETATM    1  C3  UNL     1      -0.123   2.155 -11.807  1.00  0.00    -0.027 C 
HETATM    2  C4  UNL     1       1.011   2.445 -11.143  1.00  0.00    -0.027 C 
ENDROOT
BRANCH   1   3
HETATM    3  C6  UNL     1      -0.738   2.917 -12.944  1.00  0.00     0.053 C 
BRANCH   3   4
HETATM    4  C7  UNL     1      -0.772   2.218 -14.278  1.00  0.00    -0.027 C 
HETATM    5  C8  UNL     1      -0.475   2.605 -15.531  1.00  0.00    -0.027 C 
BRANCH   5   6
HETATM    6  C17 UNL     1      -0.007   3.932 -16.061  1.00  0.00     0.053 C 
BRANCH   6   7
HETATM    7  C18 UNL     1       1.435   4.166 -15.702  1.00  0.00    -0.027 C 
HETATM    8  C19 UNL     1       1.940   5.069 -14.845  1.00  0.00    -0.030 C 
BRANCH   8   9
HETATM    9  C20 UNL     1       1.184   6.093 -14.042  1.00  0.00     0.037 C 
BRANCH   9  10
HETATM   10  C21 UNL     1       1.794   7.485 -14.155  1.00  0.00     0.113 C 
BRANCH  10  11
HETATM   11  C22 UNL     1       3.006   7.637 -13.279  1.00  0.00     0.139 C 
HETATM   12  O1  UNL     1       3.225   7.041 -12.235  1.00  0.00    -0.650 OA
BRANCH  11  13
HETATM   13  O2  UNL     1       3.894   8.527 -13.764  1.00  0.00    -0.776 OA
HETATM   14  H34 UNL     1       3.372   9.059 -14.403  1.00  0.00     0.167 HD
ENDBRANCH  11  13
ENDBRANCH  10  11
ENDBRANCH   9  10
ENDBRANCH   8   9
ENDBRANCH   6   7
ENDBRANCH   5   6
ENDBRANCH   3   4
ENDBRANCH   1   3
BRANCH   2  15
HETATM   15  C5  UNL     1       1.942   3.602 -11.374  1.00  0.00     0.053 C 
BRANCH  15  16
HETATM   16  C1  UNL     1       3.179   3.470 -10.534  1.00  0.00    -0.027 C 
HETATM   17  C2  UNL     1       3.374   3.887  -9.272  1.00  0.00    -0.027 C 
BRANCH  17  18
HETATM   18  C9  UNL     1       2.395   4.576  -8.364  1.00  0.00     0.053 C 
BRANCH  18  19
HETATM   19  C10 UNL     1       2.545   6.068  -8.439  1.00  0.00    -0.027 C 
HETATM   20  C11 UNL     1       1.776   6.938  -9.113  1.00  0.00    -0.030 C 
BRANCH  20  21
HETATM   21  C12 UNL     1       0.605   6.626 -10.000  1.00  0.00     0.027 C 
BRANCH  21  22
HETATM   22  C13 UNL     1      -0.695   6.412  -9.219  1.00  0.00     0.004 C 
BRANCH  22  23
HETATM   23  C14 UNL     1      -1.904   6.170 -10.130  1.00  0.00    -0.000 C 
BRANCH  23  24
HETATM   24  C15 UNL     1      -2.324   4.700 -10.110  1.00  0.00    -0.005 C 
HETATM   25  C16 UNL     1      -1.730   3.966  -8.918  1.00  0.00     0.005 C 
ENDBRANCH  23  24
ENDBRANCH  22  23
ENDBRANCH  21  22
ENDBRANCH  20  21
ENDBRANCH  18  19
ENDBRANCH  17  18
ENDBRANCH  15  16
ENDBRANCH   2  15
TORSDOF 16
ENDMDL
