MODEL 1
REMARK VINA RESULT:      -6.5      0.000      0.000
REMARK  16 active torsions:
REMARK  status: ('A' for Active; 'I' for Inactive)
REMARK    1  A    between atoms: C4_4  and  N1_7 
REMARK       I    between atoms: N1_7  and  C7_8 
REMARK    2  A    between atoms: C7_8  and  C8_9 
REMARK    3  A    between atoms: C8_9  and  C9_10 
REMARK    4  A    between atoms: C9_10  and  C10_11 
REMARK    5  A    between atoms: C10_11  and  C11_13 
REMARK    6  A    between atoms: C11_13  and  C12_14 
REMARK    7  A    between atoms: C12_14  and  C13_15 
REMARK    8  A    between atoms: C13_15  and  C14_16 
REMARK    9  A    between atoms: C14_16  and  C15_17 
REMARK   10  A    between atoms: C16_18  and  C17_19 
REMARK   11  A    between atoms: C17_19  and  C18_20 
REMARK   12  A    between atoms: C18_20  and  C19_21 
REMARK   13  A    between atoms: C19_21  and  C20_22 
REMARK   14  A    between atoms: C20_22  and  C21_23 
REMARK   15  A    between atoms: C21_23  and  C22_24 
REMARK   16  A    between atoms: C22_24  and  C23_25 
ROOT
HETATM    1  C11 UNL     1      -7.061  11.710 -22.126  1.00  0.00     0.000 C 
ENDROOT
BRANCH   1   2
HETATM    2  C10 UNL     1      -6.740  12.957 -22.953  1.00  0.00     0.000 C 
BRANCH   2   3
HETATM    3  C9  UNL     1      -6.220  14.166 -22.166  1.00  0.00     0.009 C 
BRANCH   3   4
HETATM    4  C8  UNL     1      -7.325  15.111 -21.688  1.00  0.00     0.103 C 
BRANCH   4   5
HETATM    5  C7  UNL     1      -7.871  14.802 -20.300  1.00  0.00     0.222 C 
HETATM    6  N1  UNL     1      -9.157  14.293 -20.362  1.00  0.00    -0.327 N 
HETATM    7  H6  UNL     1      -9.562  14.190 -21.284  1.00  0.00     0.169 HD
HETATM    8  O1  UNL     1      -7.200  14.959 -19.286  1.00  0.00    -0.273 OA
BRANCH   6   9
HETATM    9  C4  UNL     1      -9.978  13.891 -19.287  1.00  0.00     0.034 A 
HETATM   10  C3  UNL     1     -10.091  12.573 -18.839  1.00  0.00     0.029 A 
HETATM   11  C2  UNL     1     -10.928  12.259 -17.764  1.00  0.00     0.002 A 
HETATM   12  C1  UNL     1     -11.661  13.258 -17.129  1.00  0.00     0.000 A 
HETATM   13  C6  UNL     1     -11.556  14.576 -17.566  1.00  0.00     0.002 A 
HETATM   14  C5  UNL     1     -10.718  14.889 -18.639  1.00  0.00     0.029 A 
ENDBRANCH   6   9
ENDBRANCH   4   5
ENDBRANCH   3   4
ENDBRANCH   2   3
ENDBRANCH   1   2
BRANCH   1  15
HETATM   15  C12 UNL     1      -8.344  10.970 -22.520  1.00  0.00     0.000 C 
BRANCH  15  16
HETATM   16  C13 UNL     1      -9.208  11.650 -23.590  1.00  0.00     0.004 C 
BRANCH  16  17
HETATM   17  C14 UNL     1      -9.502  10.814 -24.839  1.00  0.00     0.027 C 
BRANCH  17  18
HETATM   18  C15 UNL     1      -9.115   9.369 -24.693  1.00  0.00    -0.031 C 
HETATM   19  C16 UNL     1      -8.108   8.733 -25.314  1.00  0.00    -0.031 C 
BRANCH  19  20
HETATM   20  C17 UNL     1      -7.177   9.301 -26.346  1.00  0.00     0.027 C 
BRANCH  20  21
HETATM   21  C18 UNL     1      -5.774   9.591 -25.803  1.00  0.00     0.004 C 
BRANCH  21  22
HETATM   22  C19 UNL     1      -5.437  11.072 -25.594  1.00  0.00     0.000 C 
BRANCH  22  23
HETATM   23  C20 UNL     1      -3.945  11.422 -25.609  1.00  0.00     0.000 C 
BRANCH  23  24
HETATM   24  C21 UNL     1      -3.437  12.245 -24.420  1.00  0.00     0.000 C 
BRANCH  24  25
HETATM   25  C22 UNL     1      -2.615  11.426 -23.421  1.00  0.00    -0.000 C 
BRANCH  25  26
HETATM   26  C23 UNL     1      -3.456  10.827 -22.292  1.00  0.00    -0.005 C 
HETATM   27  C24 UNL     1      -3.843   9.375 -22.524  1.00  0.00     0.005 C 
ENDBRANCH  25  26
ENDBRANCH  24  25
ENDBRANCH  23  24
ENDBRANCH  22  23
ENDBRANCH  21  22
ENDBRANCH  20  21
ENDBRANCH  19  20
ENDBRANCH  17  18
ENDBRANCH  16  17
ENDBRANCH  15  16
ENDBRANCH   1  15
TORSDOF 16
ENDMDL
MODEL 2
REMARK VINA RESULT:      -6.5     13.405     15.531
REMARK  16 active torsions:
REMARK  status: ('A' for Active; 'I' for Inactive)
REMARK    1  A    between atoms: C4_4  and  N1_7 
REMARK       I    between atoms: N1_7  and  C7_8 
REMARK    2  A    between atoms: C7_8  and  C8_9 
REMARK    3  A    between atoms: C8_9  and  C9_10 
REMARK    4  A    between atoms: C9_10  and  C10_11 
REMARK    5  A    between atoms: C10_11  and  C11_13 
REMARK    6  A    between atoms: C11_13  and  C12_14 
REMARK    7  A    between atoms: C12_14  and  C13_15 
REMARK    8  A    between atoms: C13_15  and  C14_16 
REMARK    9  A    between atoms: C14_16  and  C15_17 
REMARK   10  A    between atoms: C16_18  and  C17_19 
REMARK   11  A    between atoms: C17_19  and  C18_20 
REMARK   12  A    between atoms: C18_20  and  C19_21 
REMARK   13  A    between atoms: C19_21  and  C20_22 
REMARK   14  A    between atoms: C20_22  and  C21_23 
REMARK   15  A    between atoms: C21_23  and  C22_24 
REMARK   16  A    between atoms: C22_24  and  C23_25 
ROOT
HETATM    1  C11 UNL     1      -0.679   2.344 -15.310  1.00  0.00     0.000 C 
ENDROOT
BRANCH   1   2
HETATM    2  C10 UNL     1      -0.708   2.020 -13.815  1.00  0.00     0.000 C 
BRANCH   2   3
HETATM    3  C9  UNL     1      -0.522   0.543 -13.446  1.00  0.00     0.009 C 
BRANCH   3   4
HETATM    4  C8  UNL     1      -0.704   0.253 -11.954  1.00  0.00     0.103 C 
BRANCH   4   5
HETATM    5  C7  UNL     1      -0.488   1.453 -11.042  1.00  0.00     0.222 C 
HETATM    6  N1  UNL     1      -1.690   2.035 -10.675  1.00  0.00    -0.327 N 
HETATM    7  H6  UNL     1      -2.532   1.610 -11.042  1.00  0.00     0.169 HD
HETATM    8  O1  UNL     1       0.628   1.795 -10.669  1.00  0.00    -0.273 OA
BRANCH   6   9
HETATM    9  C4  UNL     1      -1.886   3.156  -9.841  1.00  0.00     0.034 A 
HETATM   10  C3  UNL     1      -1.832   3.114  -8.447  1.00  0.00     0.029 A 
HETATM   11  C2  UNL     1      -2.037   4.274  -7.693  1.00  0.00     0.002 A 
HETATM   12  C1  UNL     1      -2.300   5.485  -8.326  1.00  0.00     0.000 A 
HETATM   13  C6  UNL     1      -2.356   5.541  -9.716  1.00  0.00     0.002 A 
HETATM   14  C5  UNL     1      -2.149   4.382 -10.468  1.00  0.00     0.029 A 
ENDBRANCH   6   9
ENDBRANCH   4   5
ENDBRANCH   3   4
ENDBRANCH   2   3
ENDBRANCH   1   2
BRANCH   1  15
HETATM   15  C12 UNL     1       0.679   2.157 -15.998  1.00  0.00     0.000 C 
BRANCH  15  16
HETATM   16  C13 UNL     1       1.400   3.444 -16.418  1.00  0.00     0.004 C 
BRANCH  16  17
HETATM   17  C14 UNL     1       2.116   4.203 -15.297  1.00  0.00     0.027 C 
BRANCH  17  18
HETATM   18  C15 UNL     1       1.444   5.497 -14.931  1.00  0.00    -0.031 C 
HETATM   19  C16 UNL     1       0.909   5.825 -13.744  1.00  0.00    -0.031 C 
BRANCH  19  20
HETATM   20  C17 UNL     1       0.803   4.953 -12.526  1.00  0.00     0.027 C 
BRANCH  20  21
HETATM   21  C18 UNL     1       1.614   5.473 -11.335  1.00  0.00     0.004 C 
BRANCH  21  22
HETATM   22  C19 UNL     1       2.733   6.464 -11.677  1.00  0.00     0.000 C 
BRANCH  22  23
HETATM   23  C20 UNL     1       2.632   7.837 -11.005  1.00  0.00     0.000 C 
BRANCH  23  24
HETATM   24  C21 UNL     1       2.779   9.049 -11.933  1.00  0.00     0.000 C 
BRANCH  24  25
HETATM   25  C22 UNL     1       1.904   8.965 -13.187  1.00  0.00    -0.000 C 
BRANCH  25  26
HETATM   26  C23 UNL     1       2.505   9.690 -14.392  1.00  0.00    -0.005 C 
HETATM   27  C24 UNL     1       2.138  11.164 -14.463  1.00  0.00     0.005 C 
ENDBRANCH  25  26
ENDBRANCH  24  25
ENDBRANCH  23  24
ENDBRANCH  22  23
ENDBRANCH  21  22
ENDBRANCH  20  21
ENDBRANCH  19  20
ENDBRANCH  17  18
ENDBRANCH  16  17
ENDBRANCH  15  16
ENDBRANCH   1  15
TORSDOF 16
ENDMDL
