MODEL 1
REMARK VINA RESULT:      -8.0      0.000      0.000
REMARK  9 active torsions:
REMARK  status: ('A' for Active; 'I' for Inactive)
REMARK    1  A    between atoms: C2_2  and  C24_27 
REMARK    2  A    between atoms: C7_8  and  C15_17 
REMARK    3  A    between atoms: N2_9  and  C8_10 
REMARK    4  A    between atoms: C8_10  and  C9_11 
REMARK    5  A    between atoms: C15_17  and  C16_18 
REMARK    6  A    between atoms: C19_21  and  O1_24 
REMARK    7  A    between atoms: O1_24  and  C22_25 
REMARK       I    between atoms: C24_27  and  N3_28 
REMARK    8  A    between atoms: N3_28  and  C25_30 
REMARK    9  A    between atoms: N3_28  and  C26_31 
ROOT
HETATM    1  C1  UNL     1       0.956   6.564  -9.370  1.00  0.00     0.019 A 
HETATM    2  C2  UNL     1      -0.148   6.500  -8.515  1.00  0.00     0.034 A 
HETATM    3  C3  UNL     1      -1.169   5.561  -8.701  1.00  0.00     0.051 A 
HETATM    4  C4  UNL     1      -1.032   4.643  -9.750  1.00  0.00     0.086 A 
HETATM    5  C5  UNL     1       0.081   4.704 -10.584  1.00  0.00     0.065 A 
HETATM    6  C6  UNL     1       1.097   5.656 -10.423  1.00  0.00     0.033 A 
HETATM    7  N1  UNL     1      -1.857   3.612 -10.108  1.00  0.00    -0.233 NA
HETATM    8  C7  UNL     1      -1.274   3.014 -11.132  1.00  0.00     0.111 A 
HETATM    9  N2  UNL     1      -0.119   3.681 -11.489  1.00  0.00    -0.333 N 
ENDROOT
BRANCH   8  10
HETATM   10  C15 UNL     1      -1.790   1.767 -11.786  1.00  0.00     0.117 C 
BRANCH  10  11
HETATM   11  C16 UNL     1      -1.258   0.499 -11.152  1.00  0.00    -0.051 A 
HETATM   12  C17 UNL     1      -0.271  -0.267 -11.788  1.00  0.00     0.010 A 
HETATM   13  C18 UNL     1       0.224  -1.433 -11.192  1.00  0.00     0.037 A 
HETATM   14  C19 UNL     1      -0.271  -1.861  -9.962  1.00  0.00     0.068 A 
HETATM   15  C20 UNL     1      -1.270  -1.113  -9.336  1.00  0.00     0.037 A 
HETATM   16  C21 UNL     1      -1.761   0.055  -9.923  1.00  0.00     0.010 A 
BRANCH  14  17
HETATM   17  O1  UNL     1       0.110  -2.977  -9.273  1.00  0.00    -0.352 OA
BRANCH  17  18
HETATM   18  C22 UNL     1      -0.887  -3.791  -8.662  1.00  0.00     0.171 C 
HETATM   19  C23 UNL     1      -1.389  -4.853  -9.625  1.00  0.00     0.034 C 
ENDBRANCH  17  18
ENDBRANCH  14  17
ENDBRANCH  10  11
ENDBRANCH   8  10
BRANCH   9  20
HETATM   20  C8  UNL     1       0.789   3.345 -12.573  1.00  0.00     0.135 C 
BRANCH  20  21
HETATM   21  C9  UNL     1       0.480   4.063 -13.904  1.00  0.00     0.004 C 
HETATM   22  C10 UNL     1      -0.343   3.174 -14.857  1.00  0.00     0.006 C 
HETATM   23  C11 UNL     1      -0.220   3.648 -16.301  1.00  0.00     0.000 C 
HETATM   24  C12 UNL     1       1.219   3.554 -16.805  1.00  0.00     0.000 C 
HETATM   25  C13 UNL     1       2.261   3.672 -15.690  1.00  0.00     0.000 C 
HETATM   26  C14 UNL     1       1.781   4.575 -14.561  1.00  0.00     0.006 C 
ENDBRANCH  20  21
ENDBRANCH   9  20
BRANCH   2  27
HETATM   27  C24 UNL     1      -0.267   7.456  -7.399  1.00  0.00     0.253 C 
HETATM   28  N3  UNL     1       0.524   7.263  -6.263  1.00  0.00    -0.349 N 
HETATM   29  O2  UNL     1      -1.065   8.381  -7.530  1.00  0.00    -0.267 OA
BRANCH  28  30
HETATM   30  C25 UNL     1       1.304   6.050  -5.991  1.00  0.00     0.121 C 
HETATM   31  C28 UNL     1       0.544   5.045  -5.139  1.00  0.00     0.026 C 
ENDBRANCH  28  30
BRANCH  28  32
HETATM   32  C26 UNL     1       0.396   8.239  -5.182  1.00  0.00     0.121 C 
HETATM   33  C27 UNL     1       1.732   8.878  -4.821  1.00  0.00     0.026 C 
ENDBRANCH  28  32
ENDBRANCH   2  27
TORSDOF 9
ENDMDL
MODEL 2
REMARK VINA RESULT:      -7.9      2.872      8.311
REMARK  9 active torsions:
REMARK  status: ('A' for Active; 'I' for Inactive)
REMARK    1  A    between atoms: C2_2  and  C24_27 
REMARK    2  A    between atoms: C7_8  and  C15_17 
REMARK    3  A    between atoms: N2_9  and  C8_10 
REMARK    4  A    between atoms: C8_10  and  C9_11 
REMARK    5  A    between atoms: C15_17  and  C16_18 
REMARK    6  A    between atoms: C19_21  and  O1_24 
REMARK    7  A    between atoms: O1_24  and  C22_25 
REMARK       I    between atoms: C24_27  and  N3_28 
REMARK    8  A    between atoms: N3_28  and  C25_30 
REMARK    9  A    between atoms: N3_28  and  C26_31 
ROOT
HETATM    1  C1  UNL     1      -1.201  -1.234 -11.999  1.00  0.00     0.019 A 
HETATM    2  C2  UNL     1      -1.200  -1.446 -10.617  1.00  0.00     0.034 A 
HETATM    3  C3  UNL     1      -1.118  -0.383  -9.710  1.00  0.00     0.051 A 
HETATM    4  C4  UNL     1      -1.085   0.918 -10.227  1.00  0.00     0.086 A 
HETATM    5  C5  UNL     1      -1.105   1.118 -11.604  1.00  0.00     0.065 A 
HETATM    6  C6  UNL     1      -1.161   0.061 -12.523  1.00  0.00     0.033 A 
HETATM    7  N1  UNL     1      -1.053   2.111  -9.558  1.00  0.00    -0.233 NA
HETATM    8  C7  UNL     1      -1.074   3.052 -10.485  1.00  0.00     0.111 A 
HETATM    9  N2  UNL     1      -1.051   2.491 -11.747  1.00  0.00    -0.333 N 
ENDROOT
BRANCH   8  10
HETATM   10  C15 UNL     1      -1.145   4.522 -10.195  1.00  0.00     0.117 C 
BRANCH  10  11
HETATM   11  C16 UNL     1       0.054   5.289 -10.711  1.00  0.00    -0.051 A 
HETATM   12  C17 UNL     1       1.359   4.882 -10.402  1.00  0.00     0.010 A 
HETATM   13  C18 UNL     1       2.465   5.590 -10.890  1.00  0.00     0.037 A 
HETATM   14  C19 UNL     1       2.283   6.724 -11.679  1.00  0.00     0.068 A 
HETATM   15  C20 UNL     1       0.984   7.145 -11.971  1.00  0.00     0.037 A 
HETATM   16  C21 UNL     1      -0.121   6.439 -11.493  1.00  0.00     0.010 A 
BRANCH  14  17
HETATM   17  O1  UNL     1       3.262   7.511 -12.212  1.00  0.00    -0.352 OA
BRANCH  17  18
HETATM   18  C22 UNL     1       2.943   8.841 -12.615  1.00  0.00     0.171 C 
HETATM   19  C23 UNL     1       3.153   9.024 -14.108  1.00  0.00     0.034 C 
ENDBRANCH  17  18
ENDBRANCH  14  17
ENDBRANCH  10  11
ENDBRANCH   8  10
BRANCH   9  20
HETATM   20  C8  UNL     1      -1.046   3.191 -13.020  1.00  0.00     0.135 C 
BRANCH  20  21
HETATM   21  C9  UNL     1       0.158   2.855 -13.924  1.00  0.00     0.004 C 
HETATM   22  C10 UNL     1       1.197   3.994 -13.943  1.00  0.00     0.006 C 
HETATM   23  C11 UNL     1       2.096   3.904 -15.171  1.00  0.00     0.000 C 
HETATM   24  C12 UNL     1       1.300   4.063 -16.465  1.00  0.00     0.000 C 
HETATM   25  C13 UNL     1      -0.158   3.617 -16.339  1.00  0.00     0.000 C 
HETATM   26  C14 UNL     1      -0.316   2.475 -15.345  1.00  0.00     0.006 C 
ENDBRANCH  20  21
ENDBRANCH   9  20
BRANCH   2  27
HETATM   27  C24 UNL     1      -1.261  -2.820 -10.087  1.00  0.00     0.253 C 
HETATM   28  N3  UNL     1      -2.503  -3.456 -10.011  1.00  0.00    -0.349 N 
HETATM   29  O2  UNL     1      -0.204  -3.338  -9.735  1.00  0.00    -0.267 OA
BRANCH  28  30
HETATM   30  C25 UNL     1      -3.793  -2.783 -10.205  1.00  0.00     0.121 C 
HETATM   31  C28 UNL     1      -4.374  -3.020 -11.590  1.00  0.00     0.026 C 
ENDBRANCH  28  30
BRANCH  28  32
HETATM   32  C26 UNL     1      -2.528  -4.825  -9.498  1.00  0.00     0.121 C 
HETATM   33  C27 UNL     1      -2.304  -5.856 -10.597  1.00  0.00     0.026 C 
ENDBRANCH  28  32
ENDBRANCH   2  27
TORSDOF 9
ENDMDL
