MODEL 1
REMARK VINA RESULT:      -7.4      0.000      0.000
REMARK  COPANLISIB
REMARK  9 active torsions:
REMARK  status: ('A' for Active; 'I' for Inactive)
REMARK    1  A    between atoms: O_2  and  C_22 
REMARK    2  A    between atoms: O_2  and  C_26 
REMARK    3  A    between atoms: O_3  and  C_27 
REMARK    4  A    between atoms: N_5  and  C_13 
REMARK    5  A    between atoms: N_9  and  C_25 
REMARK       I    between atoms: N_9  and  C_30 
REMARK    6  A    between atoms: N_12  and  C_35 
REMARK    7  A    between atoms: C_13  and  C_16 
REMARK    8  A    between atoms: C_16  and  C_22 
REMARK    9  A    between atoms: C_30  and  C_32 
ROOT
ATOM      1  O           0       4.214  11.364  -6.271  0.00  0.00    -0.350 OA
ATOM      2  N           0       3.057  12.026  -8.787  0.00  0.00     0.142 N 
ATOM      3  C           0       4.320  12.630  -8.339  0.00  0.00     0.282 C 
ATOM      4  C           0       2.902  10.689  -8.197  0.00  0.00     0.282 C 
ATOM      5  C           0       4.359  12.677  -6.814  0.00  0.00     0.178 C 
ATOM      6  C           0       2.974  10.783  -6.676  0.00  0.00     0.178 C 
ENDROOT
BRANCH   2   7
ATOM      7  C           0       3.002  11.959 -10.246  0.00  0.00     0.253 C 
BRANCH   7   8
ATOM      8  C           0       3.718  10.709 -10.746  0.00  0.00     0.068 C 
BRANCH   8   9
ATOM      9  C           0       2.905   9.989 -11.812  0.00  0.00     0.151 C 
BRANCH   9  10
ATOM     10  O           0       2.401   8.772 -11.264  0.00  0.00    -0.329 OA
BRANCH  10  11
ATOM     11  C           0       2.088   7.779 -12.145  0.00  0.00     0.118 A 
ATOM     12  C           0       1.777   6.497 -11.684  0.00  0.00     0.135 A 
ATOM     13  C           0       1.455   5.478 -12.585  0.00  0.00     0.127 A 
ATOM     14  N           0       1.146   4.186 -12.073  0.00  0.00    -0.060 NA
ATOM     15  C           0       1.455   5.786 -13.965  0.00  0.00     0.055 A 
ATOM     16  C           0       0.847   3.252 -12.937  0.00  0.00     0.713 A 
ATOM     17  N           0       0.827   3.481 -14.300  0.00  0.00    -0.145 N 
ATOM     18  C           0       1.112   4.690 -14.882  0.00  0.00     0.156 A 
ATOM     19  C           0       0.516   2.536 -15.344  0.00  0.00     0.152 A 
ATOM     20  N           0       1.057   4.779 -16.183  0.00  0.00    -0.252 NA
ATOM     21  C           0       0.669   3.401 -16.608  0.00  0.00     0.152 A 
ATOM     22  C           0       1.764   7.063 -14.433  0.00  0.00     0.007 A 
ATOM     23  C           0       2.082   8.060 -13.513  0.00  0.00     0.026 A 
BRANCH  12  24
ATOM     24  O           0       1.789   6.245 -10.343  0.00  0.00    -0.325 OA
ATOM     25  C           0       0.577   6.478  -9.632  0.00  0.00     0.182 C 
ENDBRANCH  12  24
BRANCH  16  26
ATOM     26  N           0       0.548   2.002 -12.446  0.00  0.00    -0.153 N 
ATOM     27  C           0      -0.736   1.618 -12.111  0.00  0.00     0.274 C 
ATOM     28  O           0      -1.741   2.319 -12.203  0.00  0.00    -0.267 OA
ATOM     29  H           0       1.315   1.343 -12.368  0.00  0.00     0.187 HD
BRANCH  27  30
ATOM     30  C           0      -0.871   0.219 -11.630  0.00  0.00     0.096 A 
ATOM     31  C           0       0.223  -0.541 -11.268  0.00  0.00     0.124 A 
ATOM     32  N           0       0.139  -1.815 -10.828  0.00  0.00    -0.060 NA
ATOM     33  C           0      -1.111  -2.310 -10.762  0.00  0.00     0.721 A 
ATOM     34  N           0      -2.253  -1.674 -11.084  0.00  0.00    -0.060 NA
ATOM     35  C           0      -2.095  -0.406 -11.516  0.00  0.00     0.124 A 
BRANCH  33  36
ATOM     36  N           0      -1.238  -3.641 -10.305  0.00  0.00    -0.231 N 
ATOM     37  H           0      -1.495  -3.814  -9.342  0.00  0.00     0.174 HD
ATOM     38  H           0      -1.071  -4.404 -10.945  0.00  0.00     0.174 HD
ENDBRANCH  33  36
ENDBRANCH  27  30
ENDBRANCH  16  26
ENDBRANCH  10  11
ENDBRANCH   9  10
ENDBRANCH   8   9
ENDBRANCH   7   8
ENDBRANCH   2   7
TORSDOF 9
ENDMDL
MODEL 2
REMARK VINA RESULT:      -7.3      3.584      5.705
REMARK  COPANLISIB
REMARK  9 active torsions:
REMARK  status: ('A' for Active; 'I' for Inactive)
REMARK    1  A    between atoms: O_2  and  C_22 
REMARK    2  A    between atoms: O_2  and  C_26 
REMARK    3  A    between atoms: O_3  and  C_27 
REMARK    4  A    between atoms: N_5  and  C_13 
REMARK    5  A    between atoms: N_9  and  C_25 
REMARK       I    between atoms: N_9  and  C_30 
REMARK    6  A    between atoms: N_12  and  C_35 
REMARK    7  A    between atoms: C_13  and  C_16 
REMARK    8  A    between atoms: C_16  and  C_22 
REMARK    9  A    between atoms: C_30  and  C_32 
ROOT
ATOM      1  O           0       2.308  11.033 -11.977  0.00  0.00    -0.350 OA
ATOM      2  N           0       2.911   8.517 -13.163  0.00  0.00     0.142 N 
ATOM      3  C           0       2.932   8.704 -11.706  0.00  0.00     0.282 C 
ATOM      4  C           0       1.951   9.446 -13.777  0.00  0.00     0.282 C 
ATOM      5  C           0       3.262  10.157 -11.375  0.00  0.00     0.178 C 
ATOM      6  C           0       2.305  10.881 -13.397  0.00  0.00     0.178 C 
ENDROOT
BRANCH   2   7
ATOM      7  C           0       2.585   7.134 -13.505  0.00  0.00     0.253 C 
BRANCH   7   8
ATOM      8  C           0       1.109   7.011 -13.866  0.00  0.00     0.068 C 
BRANCH   8   9
ATOM      9  C           0       0.775   5.620 -14.387  0.00  0.00     0.151 C 
BRANCH   9  10
ATOM     10  O           0       1.568   4.663 -13.687  0.00  0.00    -0.329 OA
BRANCH  10  11
ATOM     11  C           0       0.932   3.547 -13.231  0.00  0.00     0.118 A 
ATOM     12  C           0       1.166   3.079 -11.935  0.00  0.00     0.135 A 
ATOM     13  C           0       0.514   1.935 -11.465  0.00  0.00     0.127 A 
ATOM     14  N           0       0.782   1.494 -10.138  0.00  0.00    -0.060 NA
ATOM     15  C           0      -0.382   1.275 -12.337  0.00  0.00     0.055 A 
ATOM     16  C           0       0.158   0.422  -9.723  0.00  0.00     0.713 A 
ATOM     17  N           0      -0.730  -0.274 -10.520  0.00  0.00    -0.145 N 
ATOM     18  C           0      -1.048   0.076 -11.807  0.00  0.00     0.156 A 
ATOM     19  C           0      -1.472  -1.462 -10.176  0.00  0.00     0.152 A 
ATOM     20  N           0      -1.904  -0.664 -12.458  0.00  0.00    -0.252 NA
ATOM     21  C           0      -2.261  -1.727 -11.471  0.00  0.00     0.152 A 
ATOM     22  C           0      -0.620   1.735 -13.631  0.00  0.00     0.007 A 
ATOM     23  C           0       0.043   2.877 -14.075  0.00  0.00     0.026 A 
BRANCH  12  24
ATOM     24  O           0       2.038   3.750 -11.127  0.00  0.00    -0.325 OA
ATOM     25  C           0       1.536   4.897 -10.447  0.00  0.00     0.182 C 
ENDBRANCH  12  24
BRANCH  16  26
ATOM     26  N           0       0.415  -0.008  -8.442  0.00  0.00    -0.153 N 
ATOM     27  C           0      -0.341   0.387  -7.354  0.00  0.00     0.274 C 
ATOM     28  O           0      -1.304   1.147  -7.390  0.00  0.00    -0.267 OA
ATOM     29  H           0       1.176  -0.668  -8.322  0.00  0.00     0.187 HD
BRANCH  27  30
ATOM     30  C           0       0.065  -0.209  -6.055  0.00  0.00     0.096 A 
ATOM     31  C           0       0.099  -1.573  -5.852  0.00  0.00     0.124 A 
ATOM     32  N           0       0.462  -2.149  -4.686  0.00  0.00    -0.060 NA
ATOM     33  C           0       0.797  -1.287  -3.708  0.00  0.00     0.721 A 
ATOM     34  N           0       0.805   0.058  -3.781  0.00  0.00    -0.060 NA
ATOM     35  C           0       0.432   0.565  -4.973  0.00  0.00     0.124 A 
BRANCH  33  36
ATOM     36  N           0       1.183  -1.853  -2.472  0.00  0.00    -0.231 N 
ATOM     37  H           0       2.022  -2.416  -2.424  0.00  0.00     0.174 HD
ATOM     38  H           0       0.616  -1.690  -1.653  0.00  0.00     0.174 HD
ENDBRANCH  33  36
ENDBRANCH  27  30
ENDBRANCH  16  26
ENDBRANCH  10  11
ENDBRANCH   9  10
ENDBRANCH   8   9
ENDBRANCH   7   8
ENDBRANCH   2   7
TORSDOF 9
ENDMDL
