MODEL 1
REMARK VINA RESULT:      -7.5      0.000      0.000
REMARK  3 active torsions:
REMARK  status: ('A' for Active; 'I' for Inactive)
REMARK    1  A    between atoms: C4_5  and  N2_8 
REMARK       I    between atoms: N3_11  and  C10_14 
REMARK       I    between atoms: C10_14  and  N4_16 
REMARK    2  A    between atoms: N4_16  and  C11_17 
REMARK    3  A    between atoms: C14_20  and  C17_23 
ROOT
HETATM    1  N2  UNL     1      -0.889  -2.115  -6.420  1.00  0.00    -0.361 N 
HETATM    2  C6  UNL     1       0.135  -1.065  -6.570  1.00  0.00     0.144 C 
HETATM    3  C7  UNL     1      -0.142  -0.222  -7.829  1.00  0.00     0.147 C 
HETATM    4  N3  UNL     1      -0.227  -1.028  -9.056  1.00  0.00    -0.331 N 
HETATM    5  C8  UNL     1      -0.320  -2.480  -8.856  1.00  0.00     0.147 C 
HETATM    6  C9  UNL     1      -1.222  -2.860  -7.664  1.00  0.00     0.144 C 
HETATM    7  C10 UNL     1      -0.104  -0.543 -10.353  1.00  0.00     0.323 C 
HETATM    8  O1  UNL     1      -0.004  -1.310 -11.306  1.00  0.00    -0.247 OA
HETATM    9  N4  UNL     1      -0.118   0.831 -10.449  1.00  0.00    -0.309 N 
HETATM   10  H12 UNL     1      -0.415   1.330  -9.623  1.00  0.00     0.170 HD
ENDROOT
BRANCH   9  11
HETATM   11  C11 UNL     1       0.058   1.624 -11.602  1.00  0.00     0.036 A 
HETATM   12  C12 UNL     1       1.071   2.586 -11.567  1.00  0.00     0.030 A 
HETATM   13  C13 UNL     1       1.315   3.413 -12.671  1.00  0.00     0.010 A 
HETATM   14  C14 UNL     1       0.556   3.306 -13.851  1.00  0.00    -0.051 A 
HETATM   15  C15 UNL     1      -0.455   2.332 -13.869  1.00  0.00     0.010 A 
HETATM   16  C16 UNL     1      -0.696   1.500 -12.765  1.00  0.00     0.030 A 
BRANCH  14  17
HETATM   17  C17 UNL     1       0.848   4.226 -15.046  1.00  0.00    -0.024 C 
HETATM   18  C18 UNL     1      -0.268   4.233 -16.119  1.00  0.00     0.019 C 
HETATM   19  C19 UNL     1       2.151   3.772 -15.744  1.00  0.00     0.019 C 
HETATM   20  C20 UNL     1       1.014   5.682 -14.553  1.00  0.00     0.019 C 
ENDBRANCH  14  17
ENDBRANCH   9  11
BRANCH   1  21
HETATM   21  C4  UNL     1      -0.748  -2.905  -5.266  1.00  0.00     0.147 A 
HETATM   22  N1  UNL     1       0.508  -3.290  -4.924  1.00  0.00    -0.242 NA
HETATM   23  C3  UNL     1       0.684  -4.046  -3.815  1.00  0.00     0.119 A 
HETATM   24  C2  UNL     1      -0.345  -4.456  -2.991  1.00  0.00     0.021 A 
HETATM   25  C1  UNL     1      -1.633  -4.060  -3.321  1.00  0.00     0.029 A 
HETATM   26  C5  UNL     1      -1.844  -3.271  -4.457  1.00  0.00     0.079 A 
HETATM   27 CL1  UNL     1      -3.466  -2.739  -4.744  1.00  0.00    -0.080 Cl
ENDBRANCH   1  21
TORSDOF 3
ENDMDL
MODEL 2
REMARK VINA RESULT:      -7.2      1.025      1.370
REMARK  3 active torsions:
REMARK  status: ('A' for Active; 'I' for Inactive)
REMARK    1  A    between atoms: C4_5  and  N2_8 
REMARK       I    between atoms: N3_11  and  C10_14 
REMARK       I    between atoms: C10_14  and  N4_16 
REMARK    2  A    between atoms: N4_16  and  C11_17 
REMARK    3  A    between atoms: C14_20  and  C17_23 
ROOT
HETATM    1  N2  UNL     1      -1.644  -1.428  -6.167  1.00  0.00    -0.361 N 
HETATM    2  C6  UNL     1      -0.915  -0.148  -6.226  1.00  0.00     0.144 C 
HETATM    3  C7  UNL     1      -1.014   0.462  -7.637  1.00  0.00     0.147 C 
HETATM    4  N3  UNL     1      -0.538  -0.444  -8.692  1.00  0.00    -0.331 N 
HETATM    5  C8  UNL     1      -0.321  -1.837  -8.283  1.00  0.00     0.147 C 
HETATM    6  C9  UNL     1      -1.406  -2.347  -7.312  1.00  0.00     0.144 C 
HETATM    7  C10 UNL     1      -0.169  -0.065  -9.978  1.00  0.00     0.323 C 
HETATM    8  O1  UNL     1       0.391  -0.856 -10.733  1.00  0.00    -0.247 OA
HETATM    9  N4  UNL     1      -0.495   1.234 -10.303  1.00  0.00    -0.309 N 
HETATM   10  H12 UNL     1      -1.133   1.700  -9.675  1.00  0.00     0.170 HD
ENDROOT
BRANCH   9  11
HETATM   11  C11 UNL     1      -0.195   1.934 -11.490  1.00  0.00     0.036 A 
HETATM   12  C12 UNL     1       0.977   2.695 -11.503  1.00  0.00     0.030 A 
HETATM   13  C13 UNL     1       1.350   3.419 -12.642  1.00  0.00     0.010 A 
HETATM   14  C14 UNL     1       0.567   3.406 -13.811  1.00  0.00    -0.051 A 
HETATM   15  C15 UNL     1      -0.605   2.633 -13.781  1.00  0.00     0.010 A 
HETATM   16  C16 UNL     1      -0.977   1.904 -12.640  1.00  0.00     0.030 A 
BRANCH  14  17
HETATM   17  C17 UNL     1       1.004   4.209 -15.046  1.00  0.00    -0.024 C 
HETATM   18  C18 UNL     1       2.305   3.688 -15.704  1.00  0.00     0.019 C 
HETATM   19  C19 UNL     1       1.251   5.681 -14.646  1.00  0.00     0.019 C 
HETATM   20  C20 UNL     1      -0.104   4.151 -16.122  1.00  0.00     0.019 C 
ENDBRANCH  14  17
ENDBRANCH   9  11
BRANCH   1  21
HETATM   21  C4  UNL     1      -1.651  -2.036  -4.900  1.00  0.00     0.147 A 
HETATM   22  N1  UNL     1      -0.682  -2.950  -4.642  1.00  0.00    -0.242 NA
HETATM   23  C3  UNL     1      -0.654  -3.552  -3.429  1.00  0.00     0.119 A 
HETATM   24  C2  UNL     1      -1.555  -3.289  -2.417  1.00  0.00     0.021 A 
HETATM   25  C1  UNL     1      -2.543  -2.347  -2.662  1.00  0.00     0.029 A 
HETATM   26  C5  UNL     1      -2.593  -1.703  -3.903  1.00  0.00     0.079 A 
HETATM   27 CL1  UNL     1      -3.794  -0.472  -4.094  1.00  0.00    -0.080 Cl
ENDBRANCH   1  21
TORSDOF 3
ENDMDL
