MODEL 1
REMARK VINA RESULT:      -7.4      0.000      0.000
REMARK  9 active torsions:
REMARK  status: ('A' for Active; 'I' for Inactive)
REMARK    1  A    between atoms: C1_1  and  C2_2 
REMARK       I    between atoms: C1_1  and  N1_4 
REMARK    2  A    between atoms: N1_4  and  C11_15 
REMARK    3  A    between atoms: N3_6  and  C9_13 
REMARK    4  A    between atoms: C9_13  and  C10_14 
REMARK    5  A    between atoms: C10_14  and  C14_20 
REMARK    6  A    between atoms: C11_15  and  C12_16 
REMARK    7  A    between atoms: C11_15  and  C13_17 
REMARK    8  A    between atoms: C12_16  and  C17_23 
REMARK       I    between atoms: C13_17  and  N4_18 
REMARK    9  A    between atoms: C14_20  and  C15_21 
ROOT
HETATM    1  C2  UNL     1       0.115   3.630 -12.664  1.00  0.00     0.157 A 
HETATM    2  N2  UNL     1       0.679   4.770 -12.232  1.00  0.00    -0.166 NA
HETATM    3  N3  UNL     1       1.297   5.276 -13.312  1.00  0.00    -0.268 N 
HETATM    4  C3  UNL     1       1.134   4.528 -14.450  1.00  0.00     0.065 A 
HETATM    5  C4  UNL     1       0.359   3.437 -14.062  1.00  0.00     0.028 A 
HETATM    6  C5  UNL     1       1.592   4.700 -15.765  1.00  0.00     0.032 A 
HETATM    7  C6  UNL     1       1.239   3.728 -16.707  1.00  0.00     0.002 A 
HETATM    8  C7  UNL     1       0.455   2.634 -16.350  1.00  0.00     0.001 A 
HETATM    9  C8  UNL     1       0.003   2.478 -15.035  1.00  0.00     0.016 A 
ENDROOT
BRANCH   1  10
HETATM   10  C1  UNL     1      -0.618   2.753 -11.736  1.00  0.00     0.273 C 
HETATM   11  O1  UNL     1      -1.768   2.970 -11.355  1.00  0.00    -0.266 OA
HETATM   12  N1  UNL     1       0.118   1.691 -11.236  1.00  0.00    -0.342 N 
HETATM   13  H1  UNL     1       1.126   1.788 -11.287  1.00  0.00     0.163 HD
BRANCH  12  14
HETATM   14  C11 UNL     1      -0.404   0.884 -10.132  1.00  0.00     0.180 C 
BRANCH  14  15
HETATM   15  C12 UNL     1      -0.933  -0.478 -10.640  1.00  0.00     0.013 C 
HETATM   16  C19 UNL     1      -2.462  -0.455 -10.785  1.00  0.00     0.012 C 
BRANCH  15  17
HETATM   17  C17 UNL     1      -0.273  -0.933 -11.963  1.00  0.00     0.002 C 
HETATM   18  C18 UNL     1      -1.132  -0.769 -13.208  1.00  0.00     0.005 C 
ENDBRANCH  15  17
ENDBRANCH  14  15
BRANCH  14  19
HETATM   19  C13 UNL     1       0.783   0.714  -9.158  1.00  0.00     0.238 C 
HETATM   20  N4  UNL     1       1.854   1.532  -9.409  1.00  0.00    -0.368 N 
HETATM   21  H12 UNL     1       1.970   1.888 -10.358  1.00  0.00     0.159 HD
HETATM   22  H13 UNL     1       2.705   1.309  -8.909  1.00  0.00     0.159 HD
HETATM   23  O2  UNL     1       0.842  -0.150  -8.288  1.00  0.00    -0.271 OA
ENDBRANCH  14  19
ENDBRANCH  12  14
ENDBRANCH   1  10
BRANCH   3  24
HETATM   24  C9  UNL     1       2.040   6.516 -13.183  1.00  0.00     0.151 C 
BRANCH  24  25
HETATM   25  C10 UNL     1       1.312   7.731 -13.764  1.00  0.00     0.022 C 
BRANCH  25  26
HETATM   26  C14 UNL     1       2.262   8.741 -14.412  1.00  0.00     0.001 C 
BRANCH  26  27
HETATM   27  C15 UNL     1       2.370  10.058 -13.639  1.00  0.00    -0.004 C 
HETATM   28  C16 UNL     1       2.017  11.285 -14.466  1.00  0.00     0.005 C 
ENDBRANCH  26  27
ENDBRANCH  25  26
ENDBRANCH  24  25
ENDBRANCH   3  24
TORSDOF 9
ENDMDL
MODEL 2
REMARK VINA RESULT:      -7.3      1.576      2.260
REMARK  9 active torsions:
REMARK  status: ('A' for Active; 'I' for Inactive)
REMARK    1  A    between atoms: C1_1  and  C2_2 
REMARK       I    between atoms: C1_1  and  N1_4 
REMARK    2  A    between atoms: N1_4  and  C11_15 
REMARK    3  A    between atoms: N3_6  and  C9_13 
REMARK    4  A    between atoms: C9_13  and  C10_14 
REMARK    5  A    between atoms: C10_14  and  C14_20 
REMARK    6  A    between atoms: C11_15  and  C12_16 
REMARK    7  A    between atoms: C11_15  and  C13_17 
REMARK    8  A    between atoms: C12_16  and  C17_23 
REMARK       I    between atoms: C13_17  and  N4_18 
REMARK    9  A    between atoms: C14_20  and  C15_21 
ROOT
HETATM    1  C2  UNL     1       0.527   3.385 -12.651  1.00  0.00     0.157 A 
HETATM    2  N2  UNL     1       0.697   4.625 -12.162  1.00  0.00    -0.166 NA
HETATM    3  N3  UNL     1       0.963   5.383 -13.238  1.00  0.00    -0.268 N 
HETATM    4  C3  UNL     1       0.942   4.694 -14.425  1.00  0.00     0.065 A 
HETATM    5  C4  UNL     1       0.656   3.375 -14.076  1.00  0.00     0.028 A 
HETATM    6  C5  UNL     1       1.150   5.096 -15.752  1.00  0.00     0.032 A 
HETATM    7  C6  UNL     1       1.056   4.120 -16.749  1.00  0.00     0.002 A 
HETATM    8  C7  UNL     1       0.759   2.796 -16.431  1.00  0.00     0.001 A 
HETATM    9  C8  UNL     1       0.551   2.411 -15.102  1.00  0.00     0.016 A 
ENDROOT
BRANCH   1  10
HETATM   10  C1  UNL     1       0.268   2.250 -11.749  1.00  0.00     0.273 C 
HETATM   11  O1  UNL     1       0.995   1.949 -10.803  1.00  0.00    -0.266 OA
HETATM   12  N1  UNL     1      -0.824   1.470 -12.096  1.00  0.00    -0.342 N 
HETATM   13  H1  UNL     1      -1.132   1.543 -13.059  1.00  0.00     0.163 HD
BRANCH  12  14
HETATM   14  C11 UNL     1      -1.054   0.185 -11.433  1.00  0.00     0.180 C 
BRANCH  14  15
HETATM   15  C12 UNL     1      -2.566  -0.068 -11.223  1.00  0.00     0.013 C 
HETATM   16  C19 UNL     1      -2.977  -1.441 -11.777  1.00  0.00     0.012 C 
BRANCH  15  17
HETATM   17  C17 UNL     1      -3.009   0.074  -9.748  1.00  0.00     0.002 C 
HETATM   18  C18 UNL     1      -2.108   0.938  -8.879  1.00  0.00     0.005 C 
ENDBRANCH  15  17
ENDBRANCH  14  15
BRANCH  14  19
HETATM   19  C13 UNL     1      -0.417  -0.870 -12.364  1.00  0.00     0.238 C 
HETATM   20  N4  UNL     1       0.353  -1.808 -11.727  1.00  0.00    -0.368 N 
HETATM   21  H12 UNL     1       0.756  -1.560 -10.823  1.00  0.00     0.159 HD
HETATM   22  H13 UNL     1       0.927  -2.388 -12.326  1.00  0.00     0.159 HD
HETATM   23  O2  UNL     1      -0.483  -0.838 -13.590  1.00  0.00    -0.271 OA
ENDBRANCH  14  19
ENDBRANCH  12  14
ENDBRANCH   1  10
BRANCH   3  24
HETATM   24  C9  UNL     1       1.228   6.798 -13.057  1.00  0.00     0.151 C 
BRANCH  24  25
HETATM   25  C10 UNL     1       2.710   7.164 -13.169  1.00  0.00     0.022 C 
BRANCH  25  26
HETATM   26  C14 UNL     1       2.966   8.666 -13.018  1.00  0.00     0.001 C 
BRANCH  26  27
HETATM   27  C15 UNL     1       2.543   9.481 -14.243  1.00  0.00    -0.004 C 
HETATM   28  C16 UNL     1       2.035  10.875 -13.907  1.00  0.00     0.005 C 
ENDBRANCH  26  27
ENDBRANCH  25  26
ENDBRANCH  24  25
ENDBRANCH   3  24
TORSDOF 9
ENDMDL
