MODEL 1
REMARK VINA RESULT:      -6.1      0.000      0.000
REMARK  17 active torsions:
REMARK  status: ('A' for Active; 'I' for Inactive)
REMARK    1  A    between atoms: C1_1  and  C5_5 
REMARK    2  A    between atoms: C2_2  and  C12_12 
REMARK    3  A    between atoms: C3_3  and  C4_4 
REMARK    4  A    between atoms: C3_3  and  C6_6 
REMARK    5  A    between atoms: C4_4  and  C5_5 
REMARK    6  A    between atoms: C6_6  and  C7_7 
REMARK    7  A    between atoms: C7_7  and  C8_8 
REMARK    8  A    between atoms: C8_8  and  C9_9 
REMARK    9  A    between atoms: C9_9  and  C10_10 
REMARK   10  A    between atoms: C10_10  and  C11_11 
REMARK   11  A    between atoms: C11_11  and  C20_20 
REMARK   12  A    between atoms: C12_12  and  C13_13 
REMARK   13  A    between atoms: C14_14  and  C15_15 
REMARK   14  A    between atoms: C15_15  and  C16_16 
REMARK   15  A    between atoms: C16_16  and  C17_17 
REMARK   16  A    between atoms: C17_17  and  C18_18 
REMARK   17  A    between atoms: C20_20  and  O2_22 
ROOT
HETATM    1  C4  UNL     1      -0.693   2.035 -14.292  1.00  0.00     0.004 C 
ENDROOT
BRANCH   1   2
HETATM    2  C3  UNL     1      -0.519   2.983 -15.485  1.00  0.00     0.000 C 
BRANCH   2   3
HETATM    3  C6  UNL     1       0.745   2.811 -16.329  1.00  0.00     0.000 C 
BRANCH   3   4
HETATM    4  C7  UNL     1       1.805   3.885 -16.077  1.00  0.00     0.000 C 
BRANCH   4   5
HETATM    5  C8  UNL     1       1.220   5.055 -15.282  1.00  0.00     0.000 C 
BRANCH   5   6
HETATM    6  C9  UNL     1       1.753   5.147 -13.850  1.00  0.00     0.001 C 
BRANCH   6   7
HETATM    7  C10 UNL     1       2.213   6.538 -13.391  1.00  0.00     0.010 C 
BRANCH   7   8
HETATM    8  C11 UNL     1       1.827   7.688 -14.322  1.00  0.00     0.110 C 
BRANCH   8   9
HETATM    9  C20 UNL     1       2.785   8.847 -14.251  1.00  0.00     0.139 C 
HETATM   10  O1  UNL     1       2.551  10.019 -14.489  1.00  0.00    -0.650 OA
BRANCH   9  11
HETATM   11  O2  UNL     1       4.007   8.464 -13.834  1.00  0.00    -0.776 OA
HETATM   12  H36 UNL     1       4.547   8.462 -14.652  1.00  0.00     0.167 HD
ENDBRANCH   9  11
ENDBRANCH   8   9
ENDBRANCH   7   8
ENDBRANCH   6   7
ENDBRANCH   5   6
ENDBRANCH   4   5
ENDBRANCH   3   4
ENDBRANCH   2   3
ENDBRANCH   1   2
BRANCH   1  13
HETATM   13  C5  UNL     1      -1.150   2.701 -12.987  1.00  0.00     0.027 C 
BRANCH  13  14
HETATM   14  C1  UNL     1      -1.766   1.748 -12.004  1.00  0.00    -0.030 C 
HETATM   15  C2  UNL     1      -1.146   0.840 -11.231  1.00  0.00    -0.027 C 
BRANCH  15  16
HETATM   16  C12 UNL     1       0.321   0.519 -11.176  1.00  0.00     0.053 C 
BRANCH  16  17
HETATM   17  C13 UNL     1       0.935   1.000  -9.893  1.00  0.00    -0.027 C 
HETATM   18  C14 UNL     1       1.568   2.163  -9.663  1.00  0.00    -0.030 C 
BRANCH  18  19
HETATM   19  C15 UNL     1       1.796   3.293 -10.628  1.00  0.00     0.027 C 
BRANCH  19  20
HETATM   20  C16 UNL     1       1.312   4.641 -10.082  1.00  0.00     0.004 C 
BRANCH  20  21
HETATM   21  C17 UNL     1      -0.057   5.048 -10.634  1.00  0.00    -0.000 C 
BRANCH  21  22
HETATM   22  C18 UNL     1      -1.216   4.681  -9.704  1.00  0.00    -0.005 C 
HETATM   23  C19 UNL     1      -2.476   5.493  -9.956  1.00  0.00     0.005 C 
ENDBRANCH  21  22
ENDBRANCH  20  21
ENDBRANCH  19  20
ENDBRANCH  18  19
ENDBRANCH  16  17
ENDBRANCH  15  16
ENDBRANCH  13  14
ENDBRANCH   1  13
TORSDOF 17
ENDMDL
MODEL 2
REMARK VINA RESULT:      -5.9      1.635      3.324
REMARK  17 active torsions:
REMARK  status: ('A' for Active; 'I' for Inactive)
REMARK    1  A    between atoms: C1_1  and  C5_5 
REMARK    2  A    between atoms: C2_2  and  C12_12 
REMARK    3  A    between atoms: C3_3  and  C4_4 
REMARK    4  A    between atoms: C3_3  and  C6_6 
REMARK    5  A    between atoms: C4_4  and  C5_5 
REMARK    6  A    between atoms: C6_6  and  C7_7 
REMARK    7  A    between atoms: C7_7  and  C8_8 
REMARK    8  A    between atoms: C8_8  and  C9_9 
REMARK    9  A    between atoms: C9_9  and  C10_10 
REMARK   10  A    between atoms: C10_10  and  C11_11 
REMARK   11  A    between atoms: C11_11  and  C20_20 
REMARK   12  A    between atoms: C12_12  and  C13_13 
REMARK   13  A    between atoms: C14_14  and  C15_15 
REMARK   14  A    between atoms: C15_15  and  C16_16 
REMARK   15  A    between atoms: C16_16  and  C17_17 
REMARK   16  A    between atoms: C17_17  and  C18_18 
REMARK   17  A    between atoms: C20_20  and  O2_22 
ROOT
HETATM    1  C4  UNL     1      -0.753   2.443 -15.778  1.00  0.00     0.004 C 
ENDROOT
BRANCH   1   2
HETATM    2  C3  UNL     1      -0.254   3.881 -15.966  1.00  0.00     0.000 C 
BRANCH   2   3
HETATM    3  C6  UNL     1       1.178   4.059 -16.474  1.00  0.00     0.000 C 
BRANCH   3   4
HETATM    4  C7  UNL     1       2.220   4.149 -15.358  1.00  0.00     0.000 C 
BRANCH   4   5
HETATM    5  C8  UNL     1       1.684   4.952 -14.171  1.00  0.00     0.000 C 
BRANCH   5   6
HETATM    6  C9  UNL     1       1.660   6.464 -14.419  1.00  0.00     0.001 C 
BRANCH   6   7
HETATM    7  C10 UNL     1       1.344   7.340 -13.200  1.00  0.00     0.010 C 
BRANCH   7   8
HETATM    8  C11 UNL     1       2.475   8.272 -12.762  1.00  0.00     0.110 C 
BRANCH   8   9
HETATM    9  C20 UNL     1       3.093   9.025 -13.909  1.00  0.00     0.139 C 
HETATM   10  O1  UNL     1       2.571   9.876 -14.607  1.00  0.00    -0.650 OA
BRANCH   9  11
HETATM   11  O2  UNL     1       4.384   8.686 -14.095  1.00  0.00    -0.776 OA
HETATM   12  H36 UNL     1       4.720   8.527 -13.188  1.00  0.00     0.167 HD
ENDBRANCH   9  11
ENDBRANCH   8   9
ENDBRANCH   7   8
ENDBRANCH   6   7
ENDBRANCH   5   6
ENDBRANCH   4   5
ENDBRANCH   3   4
ENDBRANCH   2   3
ENDBRANCH   1   2
BRANCH   1  13
HETATM   13  C5  UNL     1      -0.521   1.846 -14.384  1.00  0.00     0.027 C 
BRANCH  13  14
HETATM   14  C1  UNL     1      -1.071   2.686 -13.267  1.00  0.00    -0.030 C 
HETATM   15  C2  UNL     1      -0.539   2.895 -12.050  1.00  0.00    -0.027 C 
BRANCH  15  16
HETATM   16  C12 UNL     1       0.724   2.314 -11.480  1.00  0.00     0.053 C 
BRANCH  16  17
HETATM   17  C13 UNL     1       0.423   1.299 -10.414  1.00  0.00    -0.027 C 
HETATM   18  C14 UNL     1       0.066   0.013 -10.573  1.00  0.00    -0.030 C 
BRANCH  18  19
HETATM   19  C15 UNL     1      -0.095  -0.745 -11.862  1.00  0.00     0.027 C 
BRANCH  19  20
HETATM   20  C16 UNL     1      -1.565  -0.961 -12.239  1.00  0.00     0.004 C 
BRANCH  20  21
HETATM   21  C17 UNL     1      -2.530  -0.183 -11.340  1.00  0.00    -0.000 C 
BRANCH  21  22
HETATM   22  C18 UNL     1      -3.856  -0.910 -11.107  1.00  0.00    -0.005 C 
HETATM   23  C19 UNL     1      -3.978  -2.212 -11.884  1.00  0.00     0.005 C 
ENDBRANCH  21  22
ENDBRANCH  20  21
ENDBRANCH  19  20
ENDBRANCH  18  19
ENDBRANCH  16  17
ENDBRANCH  15  16
ENDBRANCH  13  14
ENDBRANCH   1  13
TORSDOF 17
ENDMDL
