REMARK  15 active torsions:
REMARK  status: ('A' for Active; 'I' for Inactive)
REMARK    1  A    between atoms: C2_2  and  C12_14 
REMARK    2  A    between atoms: C3_3  and  C6_7 
REMARK    3  A    between atoms: C4_4  and  O1_6 
REMARK    4  A    between atoms: C6_7  and  C7_8 
REMARK    5  A    between atoms: C8_9  and  C9_10 
REMARK    6  A    between atoms: C9_10  and  C10_11 
REMARK    7  A    between atoms: C10_11  and  C11_12 
REMARK    8  A    between atoms: C11_12  and  C20_23 
REMARK    9  A    between atoms: C13_15  and  C14_16 
REMARK   10  A    between atoms: C14_16  and  C15_17 
REMARK   11  A    between atoms: C14_16  and  O3_22 
REMARK   12  A    between atoms: C15_17  and  C16_18 
REMARK   13  A    between atoms: C16_18  and  C17_19 
REMARK   14  A    between atoms: C17_19  and  C18_20 
REMARK   15  A    between atoms: C20_23  and  O5_25 
ROOT
HETATM    1  C1  UNL     1      28.579  30.120  38.462  1.00  0.00     0.137 C 
HETATM    2  C2  UNL     1      30.023  29.630  38.322  1.00  0.00     0.084 C 
HETATM    3  C3  UNL     1      30.053  28.544  39.417  1.00  0.00     0.033 C 
HETATM    4  C4  UNL     1      29.176  29.153  40.523  1.00  0.00     0.130 C 
HETATM    5  C5  UNL     1      27.956  29.679  39.767  1.00  0.00     0.111 C 
HETATM    6  O2  UNL     1      27.983  30.792  37.625  1.00  0.00    -0.297 OA
ENDROOT
BRANCH   2   7
HETATM    7  C12 UNL     1      30.344  29.248  36.900  1.00  0.00    -0.016 C 
HETATM    8  C13 UNL     1      30.726  28.053  36.422  1.00  0.00     0.001 C 
BRANCH   8   9
HETATM    9  C14 UNL     1      31.014  27.785  34.974  1.00  0.00     0.140 C 
BRANCH   9  10
HETATM   10  C15 UNL     1      30.242  26.583  34.422  1.00  0.00     0.036 C 
BRANCH  10  11
HETATM   11  C16 UNL     1      29.191  26.914  33.356  1.00  0.00     0.003 C 
BRANCH  11  12
HETATM   12  C17 UNL     1      29.326  28.333  32.796  1.00  0.00    -0.000 C 
BRANCH  12  13
HETATM   13  C18 UNL     1      28.048  29.162  32.955  1.00  0.00    -0.005 C 
HETATM   14  C19 UNL     1      28.130  30.182  34.078  1.00  0.00     0.005 C 
ENDBRANCH  12  13
ENDBRANCH  11  12
ENDBRANCH  10  11
ENDBRANCH   9  10
BRANCH   9  15
HETATM   15  O3  UNL     1      32.408  27.497  34.876  1.00  0.00    -0.392 OA
HETATM   16  H31 UNL     1      32.824  28.277  34.474  1.00  0.00     0.210 HD
ENDBRANCH   9  15
ENDBRANCH   8   9
ENDBRANCH   2   7
BRANCH   3  17
HETATM   17  C6  UNL     1      31.436  28.048  39.865  1.00  0.00     0.035 C 
BRANCH  17  18
HETATM   18  C7  UNL     1      31.718  26.580  39.738  1.00  0.00    -0.030 C 
HETATM   19  C8  UNL     1      31.829  25.683  40.732  1.00  0.00    -0.031 C 
BRANCH  19  20
HETATM   20  C9  UNL     1      31.750  25.941  42.210  1.00  0.00     0.027 C 
BRANCH  20  21
HETATM   21  C10 UNL     1      33.003  26.609  42.793  1.00  0.00     0.013 C 
BRANCH  21  22
HETATM   22  C11 UNL     1      34.333  25.972  42.387  1.00  0.00     0.111 C 
BRANCH  22  23
HETATM   23  C20 UNL     1      35.233  26.913  41.622  1.00  0.00     0.258 C 
HETATM   24  O4  UNL     1      35.861  26.623  40.614  1.00  0.00    -0.265 OA
BRANCH  23  25
HETATM   25  O5  UNL     1      35.209  28.144  42.204  1.00  0.00    -0.326 OA
HETATM   26  C21 UNL     1      36.359  28.442  42.996  1.00  0.00     0.213 C 
ENDBRANCH  23  25
ENDBRANCH  22  23
ENDBRANCH  21  22
ENDBRANCH  20  21
ENDBRANCH  19  20
ENDBRANCH  17  18
ENDBRANCH   3  17
BRANCH   4  27
HETATM   27  O1  UNL     1      29.784  30.253  41.183  1.00  0.00    -0.395 OA
HETATM   28  H6  UNL     1      30.715  30.045  41.359  1.00  0.00     0.210 HD
ENDBRANCH   4  27
TORSDOF 15
