REMARK  10 active torsions:
REMARK  status: ('A' for Active; 'I' for Inactive)
REMARK    1  A    between atoms: C1_1  and  O2_20 
REMARK    2  A    between atoms: C7_8  and  C10_11 
REMARK    3  A    between atoms: C10_11  and  C11_12 
REMARK    4  A    between atoms: C11_12  and  C12_13 
REMARK    5  A    between atoms: C13_14  and  C14_15 
REMARK    6  A    between atoms: C14_15  and  C20_22 
REMARK    7  A    between atoms: C20_22  and  C21_23 
REMARK    8  A    between atoms: C22_24  and  C23_25 
REMARK    9  A    between atoms: C23_25  and  C25_27 
REMARK   10  A    between atoms: C25_27  and  C26_28 
ROOT
HETATM    1  C1  UNL     1      29.614  28.759  33.985  1.00  0.00     0.078 A 
HETATM    2  C2  UNL     1      30.455  28.302  35.016  1.00  0.00    -0.020 A 
HETATM    3  C3  UNL     1      30.419  28.969  36.262  1.00  0.00    -0.019 A 
HETATM    4  C4  UNL     1      29.487  30.011  36.467  1.00  0.00     0.083 A 
HETATM    5  C5  UNL     1      28.642  30.447  35.434  1.00  0.00    -0.015 A 
HETATM    6  C6  UNL     1      28.685  29.795  34.182  1.00  0.00    -0.019 A 
HETATM    7  O1  UNL     1      29.486  30.572  37.719  1.00  0.00    -0.339 OA
HETATM    8  C7  UNL     1      28.385  31.416  38.083  1.00  0.00     0.065 C 
HETATM    9  C8  UNL     1      28.036  32.364  36.927  1.00  0.00     0.043 C 
HETATM   10  C9  UNL     1      27.686  31.589  35.668  1.00  0.00     0.045 C 
HETATM   11  C15 UNL     1      28.891  32.274  39.256  1.00  0.00     0.046 C 
HETATM   12  C16 UNL     1      31.334  28.550  37.389  1.00  0.00     0.052 C 
HETATM   13  C17 UNL     1      27.794  30.241  33.049  1.00  0.00     0.052 C 
HETATM   14  C18 UNL     1      31.393  27.145  34.783  1.00  0.00     0.052 C 
ENDROOT
BRANCH   8  15
HETATM   15  C10 UNL     1      27.170  30.561  38.527  1.00  0.00     0.042 C 
BRANCH  15  16
HETATM   16  C11 UNL     1      27.278  29.979  39.942  1.00  0.00     0.030 C 
BRANCH  16  17
HETATM   17  C12 UNL     1      28.060  28.691  39.921  1.00  0.00    -0.024 C 
HETATM   18  C13 UNL     1      29.302  28.471  40.399  1.00  0.00    -0.087 C 
HETATM   19  C19 UNL     1      30.134  29.503  41.113  1.00  0.00     0.043 C 
BRANCH  18  20
HETATM   20  C14 UNL     1      29.932  27.093  40.289  1.00  0.00     0.037 C 
BRANCH  20  21
HETATM   21  C20 UNL     1      30.323  26.466  41.635  1.00  0.00     0.031 C 
BRANCH  21  22
HETATM   22  C21 UNL     1      31.766  26.029  41.684  1.00  0.00    -0.024 C 
HETATM   23  C22 UNL     1      32.779  26.565  42.394  1.00  0.00    -0.087 C 
HETATM   24  C24 UNL     1      32.640  27.793  43.260  1.00  0.00     0.043 C 
BRANCH  23  25
HETATM   25  C23 UNL     1      34.196  25.999  42.411  1.00  0.00     0.037 C 
BRANCH  25  26
HETATM   26  C25 UNL     1      35.137  26.383  41.259  1.00  0.00     0.031 C 
BRANCH  26  27
HETATM   27  C26 UNL     1      36.536  26.640  41.760  1.00  0.00    -0.024 C 
HETATM   28  C27 UNL     1      36.982  27.683  42.486  1.00  0.00    -0.091 C 
HETATM   29  C28 UNL     1      38.427  27.761  42.906  1.00  0.00     0.042 C 
HETATM   30  C29 UNL     1      36.149  28.850  42.943  1.00  0.00     0.042 C 
ENDBRANCH  26  27
ENDBRANCH  25  26
ENDBRANCH  23  25
ENDBRANCH  21  22
ENDBRANCH  20  21
ENDBRANCH  18  20
ENDBRANCH  16  17
ENDBRANCH  15  16
ENDBRANCH   8  15
BRANCH   1  31
HETATM   31  O2  UNL     1      29.675  28.213  32.729  1.00  0.00    -0.360 OA
HETATM   32  H24 UNL     1      29.170  27.388  32.712  1.00  0.00     0.217 HD
ENDBRANCH   1  31
TORSDOF 10
