REMARK  7 active torsions:
REMARK  status: ('A' for Active; 'I' for Inactive)
REMARK    1  A    between atoms: O1_2  and  C2_3 
REMARK    2  A    between atoms: C10_11  and  C12_13 
REMARK    3  A    between atoms: C12_13  and  O2_14 
REMARK    4  A    between atoms: O2_14  and  C14_16 
REMARK    5  A    between atoms: C14_16  and  C15_17 
REMARK    6  A    between atoms: C15_17  and  C16_19 
REMARK    7  A    between atoms: C17_20  and  C18_21 
ROOT
HETATM    1  C12 UNL     1      31.061  25.829  39.909  1.00  0.00     0.271 C 
HETATM    2  C13 UNL     1      31.338  24.447  39.454  1.00  0.00     0.097 C 
HETATM    3  N1  UNL     1      31.547  23.358  39.106  1.00  0.00    -0.194 NA
ENDROOT
BRANCH   1   4
HETATM    4  C10 UNL     1      32.091  26.281  40.940  1.00  0.00    -0.014 A 
HETATM    5  C9  UNL     1      31.663  26.739  42.195  1.00  0.00     0.012 A 
HETATM    6  C8  UNL     1      32.591  27.141  43.160  1.00  0.00     0.013 A 
HETATM    7  C4  UNL     1      33.968  27.095  42.900  1.00  0.00    -0.023 A 
HETATM    8  C3  UNL     1      34.911  27.496  43.866  1.00  0.00     0.049 A 
HETATM    9  C5  UNL     1      34.413  26.631  41.644  1.00  0.00    -0.025 A 
HETATM   10  C2  UNL     1      36.280  27.442  43.594  1.00  0.00     0.069 A 
HETATM   11  C7  UNL     1      36.710  26.992  42.347  1.00  0.00     0.037 A 
HETATM   12  C6  UNL     1      35.789  26.587  41.379  1.00  0.00     0.015 A 
HETATM   13  C11 UNL     1      33.471  26.224  40.682  1.00  0.00     0.023 A 
BRANCH  10  14
HETATM   14  O1  UNL     1      37.286  27.801  44.448  1.00  0.00    -0.356 OA
HETATM   15  C1  UNL     1      38.404  28.476  43.880  1.00  0.00     0.210 C 
ENDBRANCH  10  14
ENDBRANCH   1   4
BRANCH   1  16
HETATM   16  O2  UNL     1      31.087  26.756  38.801  1.00  0.00    -0.296 OA
BRANCH  16  17
HETATM   17  C14 UNL     1      30.153  27.745  38.864  1.00  0.00     0.263 C 
HETATM   18  O3  UNL     1      28.950  27.552  38.949  1.00  0.00    -0.265 OA
BRANCH  17  19
HETATM   19  C15 UNL     1      30.833  29.093  38.852  1.00  0.00     0.146 C 
BRANCH  19  20
HETATM   20  C16 UNL     1      30.355  29.972  37.735  1.00  0.00     0.165 A 
HETATM   21  C17 UNL     1      29.212  30.958  37.893  1.00  0.00     0.184 A 
HETATM   22  O4  UNL     1      30.595  31.366  37.950  1.00  0.00    -0.370 OA
BRANCH  21  23
HETATM   23  C18 UNL     1      28.405  31.025  39.163  1.00  0.00    -0.027 A 
HETATM   24  C19 UNL     1      27.179  30.351  39.295  1.00  0.00     0.010 A 
HETATM   25  C20 UNL     1      26.432  30.417  40.473  1.00  0.00     0.001 A 
HETATM   26  C21 UNL     1      26.902  31.157  41.555  1.00  0.00     0.000 A 
HETATM   27  C22 UNL     1      28.117  31.829  41.455  1.00  0.00     0.001 A 
HETATM   28  C23 UNL     1      28.860  31.761  40.272  1.00  0.00     0.010 A 
ENDBRANCH  21  23
ENDBRANCH  19  20
ENDBRANCH  17  19
ENDBRANCH  16  17
ENDBRANCH   1  16
TORSDOF 7
