REMARK  19 active torsions:
REMARK  status: ('A' for Active; 'I' for Inactive)
REMARK    1  A    between atoms: O1_1  and  C1_2 
REMARK    2  A    between atoms: C1_2  and  C2_3 
REMARK    3  A    between atoms: C2_3  and  C3_4 
REMARK    4  A    between atoms: C3_4  and  C4_5 
REMARK    5  A    between atoms: C4_5  and  C5_6 
REMARK    6  A    between atoms: C5_6  and  C6_7 
REMARK    7  A    between atoms: C7_8  and  C8_9 
REMARK    8  A    between atoms: C8_9  and  C9_10 
REMARK    9  A    between atoms: C10_11  and  C11_12 
REMARK   10  A    between atoms: C11_12  and  C12_13 
REMARK   11  A    between atoms: C13_14  and  C14_15 
REMARK   12  A    between atoms: C14_15  and  C15_16 
REMARK   13  A    between atoms: C16_17  and  C17_18 
REMARK   14  A    between atoms: C17_18  and  C18_19 
REMARK   15  A    between atoms: C18_19  and  C19_20 
REMARK   16  A    between atoms: C19_20  and  C20_21 
REMARK       I    between atoms: C20_21  and  N1_22 
REMARK   17  A    between atoms: N1_22  and  C21_24 
REMARK   18  A    between atoms: C21_24  and  C22_25 
REMARK   19  A    between atoms: C22_25  and  O3_26 
ROOT
HETATM    1  C12 UNL     1      30.921  27.695  36.764  1.00  0.00    -0.027 C 
HETATM    2  C13 UNL     1      30.861  26.352  36.783  1.00  0.00    -0.027 C 
ENDROOT
BRANCH   2   3
HETATM    3  C14 UNL     1      30.031  25.491  37.688  1.00  0.00     0.053 C 
BRANCH   3   4
HETATM    4  C15 UNL     1      30.871  24.455  38.377  1.00  0.00    -0.027 C 
HETATM    5  C16 UNL     1      31.341  24.478  39.635  1.00  0.00    -0.030 C 
BRANCH   5   6
HETATM    6  C17 UNL     1      31.099  25.529  40.682  1.00  0.00     0.027 C 
BRANCH   6   7
HETATM    7  C18 UNL     1      32.182  25.545  41.765  1.00  0.00     0.013 C 
BRANCH   7   8
HETATM    8  C19 UNL     1      32.050  26.735  42.716  1.00  0.00     0.103 C 
BRANCH   8   9
HETATM    9  C20 UNL     1      33.394  27.342  43.067  1.00  0.00     0.217 C 
HETATM   10  N1  UNL     1      34.453  26.554  42.668  1.00  0.00    -0.359 N 
HETATM   11  H32 UNL     1      34.268  25.584  42.444  1.00  0.00     0.162 HD
HETATM   12  O2  UNL     1      33.531  28.410  43.654  1.00  0.00    -0.274 OA
BRANCH  10  13
HETATM   13  C21 UNL     1      35.811  26.856  43.088  1.00  0.00     0.148 C 
BRANCH  13  14
HETATM   14  C22 UNL     1      36.686  27.246  41.896  1.00  0.00     0.183 C 
BRANCH  14  15
HETATM   15  O3  UNL     1      36.016  26.902  40.681  1.00  0.00    -0.399 OA
HETATM   16  H37 UNL     1      36.567  27.248  39.956  1.00  0.00     0.209 HD
ENDBRANCH  14  15
ENDBRANCH  13  14
ENDBRANCH  10  13
ENDBRANCH   8   9
ENDBRANCH   7   8
ENDBRANCH   6   7
ENDBRANCH   5   6
ENDBRANCH   3   4
ENDBRANCH   2   3
BRANCH   1  17
HETATM   17  C11 UNL     1      30.219  28.656  37.680  1.00  0.00     0.053 C 
BRANCH  17  18
HETATM   18  C10 UNL     1      31.073  28.997  38.867  1.00  0.00    -0.027 C 
HETATM   19  C9  UNL     1      30.673  29.121  40.144  1.00  0.00    -0.027 C 
BRANCH  19  20
HETATM   20  C8  UNL     1      29.294  28.879  40.687  1.00  0.00     0.053 C 
BRANCH  20  21
HETATM   21  C7  UNL     1      28.638  30.162  41.109  1.00  0.00    -0.027 C 
HETATM   22  C6  UNL     1      27.552  30.746  40.575  1.00  0.00    -0.030 C 
BRANCH  22  23
HETATM   23  C5  UNL     1      26.704  30.248  39.436  1.00  0.00     0.027 C 
BRANCH  23  24
HETATM   24  C4  UNL     1      27.057  30.907  38.097  1.00  0.00     0.004 C 
BRANCH  24  25
HETATM   25  C3  UNL     1      27.858  32.211  38.190  1.00  0.00     0.002 C 
BRANCH  25  26
HETATM   26  C2  UNL     1      29.326  32.115  37.773  1.00  0.00     0.026 C 
BRANCH  26  27
HETATM   27  C1  UNL     1      30.293  32.677  38.806  1.00  0.00     0.164 C 
BRANCH  27  28
HETATM   28  O1  UNL     1      31.278  33.453  38.134  1.00  0.00    -0.401 OA
HETATM   29  H1  UNL     1      31.528  32.966  37.330  1.00  0.00     0.209 HD
ENDBRANCH  27  28
ENDBRANCH  26  27
ENDBRANCH  25  26
ENDBRANCH  24  25
ENDBRANCH  23  24
ENDBRANCH  22  23
ENDBRANCH  20  21
ENDBRANCH  19  20
ENDBRANCH  17  18
ENDBRANCH   1  17
TORSDOF 19
