REMARK  7 active torsions:
REMARK  status: ('A' for Active; 'I' for Inactive)
REMARK    1  A    between atoms: C2_2  and  O1_7 
REMARK    2  A    between atoms: C8_10  and  S1_12 
REMARK    3  A    between atoms: S1_12  and  C9_13 
REMARK    4  A    between atoms: C9_13  and  C10_15 
REMARK    5  A    between atoms: C12_17  and  O3_22 
REMARK    6  A    between atoms: C13_18  and  C17_24 
REMARK    7  A    between atoms: C17_24  and  O4_25 
ROOT
HETATM    1  S1  UNL     1      31.210  26.078  40.491  1.00  0.00     0.091 S 
HETATM    2  O2  UNL     1      31.262  24.625  40.109  1.00  0.00    -0.249 OA
ENDROOT
BRANCH   1   3
HETATM    3  C8  UNL     1      32.789  26.403  41.292  1.00  0.00     0.198 A 
HETATM    4  N1  UNL     1      32.950  26.651  42.573  1.00  0.00    -0.220 NA
HETATM    5  C4  UNL     1      34.304  26.834  42.730  1.00  0.00     0.089 A 
HETATM    6  C3  UNL     1      35.042  27.127  43.885  1.00  0.00     0.070 A 
HETATM    7  C5  UNL     1      34.971  26.696  41.518  1.00  0.00     0.063 A 
HETATM    8  C2  UNL     1      36.434  27.274  43.789  1.00  0.00     0.070 A 
HETATM    9  C1  UNL     1      37.072  27.128  42.553  1.00  0.00     0.039 A 
HETATM   10  C6  UNL     1      36.353  26.836  41.384  1.00  0.00     0.035 A 
HETATM   11  N2  UNL     1      33.978  26.419  40.616  1.00  0.00    -0.331 N 
HETATM   12  H7  UNL     1      34.073  26.265  39.622  1.00  0.00     0.168 HD
BRANCH   8  13
HETATM   13  O1  UNL     1      37.050  27.558  44.979  1.00  0.00    -0.356 OA
HETATM   14  C7  UNL     1      36.323  27.277  46.169  1.00  0.00     0.210 C 
ENDBRANCH   8  13
ENDBRANCH   1   3
BRANCH   1  15
HETATM   15  C9  UNL     1      31.516  27.111  39.024  1.00  0.00     0.177 C 
BRANCH  15  16
HETATM   16  C10 UNL     1      30.862  28.466  39.136  1.00  0.00     0.054 A 
HETATM   17  C11 UNL     1      30.429  29.199  38.021  1.00  0.00    -0.003 A 
HETATM   18  C12 UNL     1      29.893  30.477  38.265  1.00  0.00     0.086 A 
HETATM   19  C15 UNL     1      30.561  28.682  36.616  1.00  0.00     0.053 C 
HETATM   20  C13 UNL     1      29.688  30.946  39.564  1.00  0.00     0.017 A 
HETATM   21  C14 UNL     1      30.133  30.130  40.590  1.00  0.00     0.129 A 
HETATM   22  N3  UNL     1      30.710  28.923  40.406  1.00  0.00    -0.263 NA
BRANCH  18  23
HETATM   23  O3  UNL     1      29.495  31.256  37.205  1.00  0.00    -0.355 OA
HETATM   24  C16 UNL     1      28.116  31.020  36.907  1.00  0.00     0.210 C 
ENDBRANCH  18  23
BRANCH  20  25
HETATM   25  C17 UNL     1      29.064  32.272  39.872  1.00  0.00     0.207 C 
BRANCH  25  26
HETATM   26  O4  UNL     1      29.844  33.334  39.333  1.00  0.00    -0.396 OA
HETATM   27  H19 UNL     1      30.747  32.987  39.222  1.00  0.00     0.209 HD
ENDBRANCH  25  26
ENDBRANCH  20  25
ENDBRANCH  15  16
ENDBRANCH   1  15
TORSDOF 7
