REMARK  3 active torsions:
REMARK  status: ('A' for Active; 'I' for Inactive)
REMARK    1  A    between atoms: C1_1  and  C5_11 
REMARK       I    between atoms: N4_5  and  C2_6 
REMARK       I    between atoms: C2_6  and  N5_8 
REMARK    2  A    between atoms: C5_11  and  C6_12 
REMARK    3  A    between atoms: C9_15  and  C12_18 
ROOT
HETATM    1  C6  UNL     1      30.733  27.780  40.732  1.00  0.00    -0.051 A 
HETATM    2  C7  UNL     1      30.912  28.501  41.921  1.00  0.00     0.008 A 
HETATM    3  C8  UNL     1      32.029  28.267  42.729  1.00  0.00     0.013 A 
HETATM    4  C9  UNL     1      32.998  27.314  42.372  1.00  0.00    -0.026 A 
HETATM    5  C10 UNL     1      32.813  26.603  41.175  1.00  0.00     0.013 A 
HETATM    6  C11 UNL     1      31.698  26.835  40.362  1.00  0.00     0.008 A 
ENDROOT
BRANCH   1   7
HETATM    7  C5  UNL     1      29.536  28.044  39.843  1.00  0.00     0.120 C 
BRANCH   7   8
HETATM    8  C1  UNL     1      29.839  29.008  38.750  1.00  0.00     0.150 C 
HETATM    9  N1  UNL     1      30.286  28.698  37.545  1.00  0.00    -0.146 NA
HETATM   10  N2  UNL     1      30.611  29.879  36.939  1.00  0.00     0.018 NA
HETATM   11  N3  UNL     1      30.363  30.908  37.735  1.00  0.00     0.006 NA
HETATM   12  N4  UNL     1      29.781  30.389  38.847  1.00  0.00    -0.175 N 
HETATM   13  C2  UNL     1      29.270  31.254  39.832  1.00  0.00     0.342 C 
HETATM   14  O1  UNL     1      29.820  32.331  40.044  1.00  0.00    -0.245 OA
HETATM   15  N5  UNL     1      28.151  30.769  40.525  1.00  0.00    -0.341 N 
HETATM   16  C3  UNL     1      26.999  30.255  39.783  1.00  0.00     0.154 C 
HETATM   17  C4  UNL     1      27.809  31.494  41.739  1.00  0.00     0.154 C 
ENDBRANCH   7   8
ENDBRANCH   1   7
BRANCH   4  18
HETATM   18  C12 UNL     1      34.176  27.072  43.222  1.00  0.00    -0.026 A 
HETATM   19  C13 UNL     1      34.863  25.847  43.179  1.00  0.00     0.012 A 
HETATM   20  C14 UNL     1      35.980  25.617  43.986  1.00  0.00     0.001 A 
HETATM   21  C15 UNL     1      36.431  26.611  44.853  1.00  0.00     0.000 A 
HETATM   22  C16 UNL     1      35.764  27.833  44.913  1.00  0.00     0.001 A 
HETATM   23  C17 UNL     1      34.647  28.060  44.104  1.00  0.00     0.012 A 
ENDBRANCH   4  18
TORSDOF 3
