REMARK  16 active torsions:
REMARK  status: ('A' for Active; 'I' for Inactive)
REMARK    1  A    between atoms: C1_1  and  C5_5 
REMARK    2  A    between atoms: C2_2  and  C9_9 
REMARK    3  A    between atoms: C3_3  and  C6_6 
REMARK    4  A    between atoms: C4_4  and  C5_5 
REMARK    5  A    between atoms: C6_6  and  C7_7 
REMARK    6  A    between atoms: C8_8  and  C17_17 
REMARK    7  A    between atoms: C9_9  and  C10_10 
REMARK    8  A    between atoms: C11_11  and  C12_12 
REMARK    9  A    between atoms: C12_12  and  C13_13 
REMARK   10  A    between atoms: C13_13  and  C14_14 
REMARK   11  A    between atoms: C14_14  and  C15_15 
REMARK   12  A    between atoms: C17_17  and  C18_18 
REMARK   13  A    between atoms: C19_19  and  C20_20 
REMARK   14  A    between atoms: C20_20  and  C21_21 
REMARK   15  A    between atoms: C21_21  and  C22_22 
REMARK   16  A    between atoms: C22_22  and  O2_24 
ROOT
HETATM    1  C3  UNL     1      30.962  24.894  41.521  1.00  0.00    -0.027 C 
HETATM    2  C4  UNL     1      31.219  25.807  42.475  1.00  0.00    -0.027 C 
ENDROOT
BRANCH   1   3
HETATM    3  C6  UNL     1      31.901  24.380  40.470  1.00  0.00     0.053 C 
BRANCH   3   4
HETATM    4  C7  UNL     1      31.304  24.104  39.115  1.00  0.00    -0.027 C 
HETATM    5  C8  UNL     1      30.631  24.861  38.231  1.00  0.00    -0.027 C 
BRANCH   5   6
HETATM    6  C17 UNL     1      30.202  26.300  38.301  1.00  0.00     0.053 C 
BRANCH   6   7
HETATM    7  C18 UNL     1      31.370  27.184  38.645  1.00  0.00    -0.027 C 
HETATM    8  C19 UNL     1      31.407  28.208  39.514  1.00  0.00    -0.030 C 
BRANCH   8   9
HETATM    9  C20 UNL     1      30.274  28.743  40.348  1.00  0.00     0.037 C 
BRANCH   9  10
HETATM   10  C21 UNL     1      29.354  29.665  39.555  1.00  0.00     0.113 C 
BRANCH  10  11
HETATM   11  C22 UNL     1      30.064  30.911  39.106  1.00  0.00     0.139 C 
HETATM   12  O1  UNL     1      30.503  31.133  37.987  1.00  0.00    -0.650 OA
BRANCH  11  13
HETATM   13  O2  UNL     1      30.181  31.829  40.086  1.00  0.00    -0.776 OA
HETATM   14  H34 UNL     1      31.144  32.015  40.122  1.00  0.00     0.167 HD
ENDBRANCH  11  13
ENDBRANCH  10  11
ENDBRANCH   9  10
ENDBRANCH   8   9
ENDBRANCH   6   7
ENDBRANCH   5   6
ENDBRANCH   3   4
ENDBRANCH   1   3
BRANCH   2  15
HETATM   15  C5  UNL     1      32.508  26.539  42.725  1.00  0.00     0.053 C 
BRANCH  15  16
HETATM   16  C1  UNL     1      32.262  27.818  43.472  1.00  0.00    -0.027 C 
HETATM   17  C2  UNL     1      33.164  28.723  43.887  1.00  0.00    -0.027 C 
BRANCH  17  18
HETATM   18  C9  UNL     1      34.653  28.701  43.692  1.00  0.00     0.053 C 
BRANCH  18  19
HETATM   19  C10 UNL     1      35.323  27.853  44.735  1.00  0.00    -0.027 C 
HETATM   20  C11 UNL     1      36.634  27.592  44.863  1.00  0.00    -0.030 C 
BRANCH  20  21
HETATM   21  C12 UNL     1      37.748  28.045  43.964  1.00  0.00     0.027 C 
BRANCH  21  22
HETATM   22  C13 UNL     1      37.734  27.351  42.599  1.00  0.00     0.004 C 
BRANCH  22  23
HETATM   23  C14 UNL     1      37.473  25.844  42.700  1.00  0.00    -0.000 C 
BRANCH  23  24
HETATM   24  C15 UNL     1      36.153  25.466  42.026  1.00  0.00    -0.005 C 
HETATM   25  C16 UNL     1      35.777  26.461  40.939  1.00  0.00     0.005 C 
ENDBRANCH  23  24
ENDBRANCH  22  23
ENDBRANCH  21  22
ENDBRANCH  20  21
ENDBRANCH  18  19
ENDBRANCH  17  18
ENDBRANCH  15  16
ENDBRANCH   2  15
TORSDOF 16
