REMARK  16 active torsions:
REMARK  status: ('A' for Active; 'I' for Inactive)
REMARK    1  A    between atoms: C4_4  and  N1_7 
REMARK       I    between atoms: N1_7  and  C7_8 
REMARK    2  A    between atoms: C7_8  and  C8_9 
REMARK    3  A    between atoms: C8_9  and  C9_10 
REMARK    4  A    between atoms: C9_10  and  C10_11 
REMARK    5  A    between atoms: C10_11  and  C11_13 
REMARK    6  A    between atoms: C11_13  and  C12_14 
REMARK    7  A    between atoms: C12_14  and  C13_15 
REMARK    8  A    between atoms: C13_15  and  C14_16 
REMARK    9  A    between atoms: C14_16  and  C15_17 
REMARK   10  A    between atoms: C16_18  and  C17_19 
REMARK   11  A    between atoms: C17_19  and  C18_20 
REMARK   12  A    between atoms: C18_20  and  C19_21 
REMARK   13  A    between atoms: C19_21  and  C20_22 
REMARK   14  A    between atoms: C20_22  and  C21_23 
REMARK   15  A    between atoms: C21_23  and  C22_24 
REMARK   16  A    between atoms: C22_24  and  C23_25 
ROOT
HETATM    1  C11 UNL     1      31.549  24.146  40.118  1.00  0.00     0.000 C 
ENDROOT
BRANCH   1   2
HETATM    2  C10 UNL     1      31.111  24.671  38.749  1.00  0.00     0.000 C 
BRANCH   2   3
HETATM    3  C9  UNL     1      30.336  25.995  38.757  1.00  0.00     0.009 C 
BRANCH   3   4
HETATM    4  C8  UNL     1      31.157  27.191  38.269  1.00  0.00     0.103 C 
BRANCH   4   5
HETATM    5  C7  UNL     1      30.524  28.550  38.537  1.00  0.00     0.222 C 
HETATM    6  N1  UNL     1      29.548  28.471  39.516  1.00  0.00    -0.327 N 
HETATM    7  H6  UNL     1      29.381  27.558  39.919  1.00  0.00     0.169 HD
HETATM    8  O1  UNL     1      30.898  29.567  37.964  1.00  0.00    -0.273 OA
BRANCH   6   9
HETATM    9  C4  UNL     1      28.754  29.519  40.028  1.00  0.00     0.034 A 
HETATM   10  C3  UNL     1      29.106  30.302  41.129  1.00  0.00     0.029 A 
HETATM   11  C2  UNL     1      28.261  31.324  41.573  1.00  0.00     0.002 A 
HETATM   12  C1  UNL     1      27.056  31.571  40.921  1.00  0.00     0.000 A 
HETATM   13  C6  UNL     1      26.694  30.798  39.821  1.00  0.00     0.002 A 
HETATM   14  C5  UNL     1      27.540  29.778  39.378  1.00  0.00     0.029 A 
ENDBRANCH   6   9
ENDBRANCH   4   5
ENDBRANCH   3   4
ENDBRANCH   2   3
ENDBRANCH   1   2
BRANCH   1  15
HETATM   15  C12 UNL     1      31.157  25.020  41.315  1.00  0.00     0.000 C 
BRANCH  15  16
HETATM   16  C13 UNL     1      32.319  25.634  42.106  1.00  0.00     0.004 C 
BRANCH  16  17
HETATM   17  C14 UNL     1      32.535  27.138  41.913  1.00  0.00     0.027 C 
BRANCH  17  18
HETATM   18  C15 UNL     1      32.153  27.953  43.117  1.00  0.00    -0.031 C 
HETATM   19  C16 UNL     1      32.976  28.646  43.921  1.00  0.00    -0.031 C 
BRANCH  19  20
HETATM   20  C17 UNL     1      34.474  28.716  43.841  1.00  0.00     0.027 C 
BRANCH  20  21
HETATM   21  C18 UNL     1      35.178  27.694  44.739  1.00  0.00     0.004 C 
BRANCH  21  22
HETATM   22  C19 UNL     1      36.709  27.774  44.760  1.00  0.00     0.000 C 
BRANCH  22  23
HETATM   23  C20 UNL     1      37.360  28.359  43.502  1.00  0.00     0.000 C 
BRANCH  23  24
HETATM   24  C21 UNL     1      37.725  27.351  42.406  1.00  0.00     0.000 C 
BRANCH  24  25
HETATM   25  C22 UNL     1      36.532  26.935  41.541  1.00  0.00    -0.000 C 
BRANCH  25  26
HETATM   26  C23 UNL     1      36.023  25.526  41.851  1.00  0.00    -0.005 C 
HETATM   27  C24 UNL     1      36.986  24.700  42.689  1.00  0.00     0.005 C 
ENDBRANCH  25  26
ENDBRANCH  24  25
ENDBRANCH  23  24
ENDBRANCH  22  23
ENDBRANCH  21  22
ENDBRANCH  20  21
ENDBRANCH  19  20
ENDBRANCH  17  18
ENDBRANCH  16  17
ENDBRANCH  15  16
ENDBRANCH   1  15
TORSDOF 16
