REMARK  17 active torsions:
REMARK  status: ('A' for Active; 'I' for Inactive)
REMARK    1  A    between atoms: C1_1  and  C2_2 
REMARK    2  A    between atoms: C1_1  and  N1_21 
REMARK    3  A    between atoms: C2_2  and  C3_3 
REMARK    4  A    between atoms: C3_3  and  C4_4 
REMARK    5  A    between atoms: C4_4  and  C5_5 
REMARK    6  A    between atoms: C6_6  and  C7_7 
REMARK    7  A    between atoms: C7_7  and  C8_8 
REMARK    8  A    between atoms: C9_9  and  C10_10 
REMARK    9  A    between atoms: C10_10  and  C11_11 
REMARK   10  A    between atoms: C12_12  and  C13_13 
REMARK   11  A    between atoms: C13_13  and  C14_14 
REMARK   12  A    between atoms: C15_15  and  C16_16 
REMARK   13  A    between atoms: C16_16  and  C17_17 
REMARK   14  A    between atoms: C17_17  and  C18_18 
REMARK   15  A    between atoms: C18_18  and  C19_19 
REMARK       I    between atoms: N1_21  and  C21_22 
REMARK   16  A    between atoms: C21_22  and  C22_24 
REMARK   17  A    between atoms: C26_28  and  O2_30 
ROOT
HETATM    1  C4  UNL     1      30.042  28.490  40.595  1.00  0.00     0.027 C 
ENDROOT
BRANCH   1   2
HETATM    2  C3  UNL     1      29.580  29.913  40.921  1.00  0.00     0.005 C 
BRANCH   2   3
HETATM    3  C2  UNL     1      28.198  30.242  40.343  1.00  0.00     0.020 C 
BRANCH   3   4
HETATM    4  C1  UNL     1      28.264  31.256  39.201  1.00  0.00     0.123 C 
BRANCH   4   5
HETATM    5  N1  UNL     1      28.350  30.641  37.893  1.00  0.00    -0.357 N 
HETATM    6  C21 UNL     1      29.564  30.437  37.268  1.00  0.00     0.251 C 
HETATM    7  O1  UNL     1      30.642  30.743  37.762  1.00  0.00    -0.268 OA
HETATM    8  H34 UNL     1      27.503  30.572  37.349  1.00  0.00     0.162 HD
BRANCH   6   9
HETATM    9  C22 UNL     1      29.507  29.843  35.905  1.00  0.00     0.032 A 
HETATM   10  C23 UNL     1      28.605  30.303  34.935  1.00  0.00     0.020 A 
HETATM   11  C27 UNL     1      28.578  29.707  33.671  1.00  0.00     0.037 A 
HETATM   12  C26 UNL     1      29.442  28.655  33.385  1.00  0.00     0.065 A 
HETATM   13  C25 UNL     1      30.334  28.179  34.342  1.00  0.00     0.037 A 
HETATM   14  C24 UNL     1      30.362  28.772  35.607  1.00  0.00     0.020 A 
BRANCH  12  15
HETATM   15  O2  UNL     1      29.376  28.104  32.139  1.00  0.00    -0.361 OA
HETATM   16  H39 UNL     1      28.443  28.037  31.876  1.00  0.00     0.217 HD
ENDBRANCH  12  15
ENDBRANCH   6   9
ENDBRANCH   4   5
ENDBRANCH   3   4
ENDBRANCH   2   3
ENDBRANCH   1   2
BRANCH   1  17
HETATM   17  C5  UNL     1      29.085  27.751  39.702  1.00  0.00    -0.030 C 
HETATM   18  C6  UNL     1      29.395  26.875  38.731  1.00  0.00    -0.027 C 
BRANCH  18  19
HETATM   19  C7  UNL     1      30.759  26.389  38.334  1.00  0.00     0.053 C 
BRANCH  19  20
HETATM   20  C8  UNL     1      30.786  24.891  38.245  1.00  0.00    -0.027 C 
HETATM   21  C9  UNL     1      31.248  24.017  39.156  1.00  0.00    -0.027 C 
BRANCH  21  22
HETATM   22  C10 UNL     1      31.879  24.318  40.486  1.00  0.00     0.053 C 
BRANCH  22  23
HETATM   23  C11 UNL     1      30.884  24.922  41.435  1.00  0.00    -0.027 C 
HETATM   24  C12 UNL     1      31.135  25.654  42.534  1.00  0.00    -0.027 C 
BRANCH  24  25
HETATM   25  C13 UNL     1      32.470  26.088  43.066  1.00  0.00     0.053 C 
BRANCH  25  26
HETATM   26  C14 UNL     1      32.934  27.352  42.401  1.00  0.00    -0.027 C 
HETATM   27  C15 UNL     1      33.949  27.500  41.533  1.00  0.00    -0.030 C 
BRANCH  27  28
HETATM   28  C16 UNL     1      34.899  26.441  41.051  1.00  0.00     0.027 C 
BRANCH  28  29
HETATM   29  C17 UNL     1      36.277  26.513  41.718  1.00  0.00     0.004 C 
BRANCH  29  30
HETATM   30  C18 UNL     1      36.280  26.442  43.249  1.00  0.00    -0.000 C 
BRANCH  30  31
HETATM   31  C19 UNL     1      36.132  25.019  43.791  1.00  0.00    -0.005 C 
HETATM   32  C20 UNL     1      36.948  24.027  42.976  1.00  0.00     0.005 C 
ENDBRANCH  30  31
ENDBRANCH  29  30
ENDBRANCH  28  29
ENDBRANCH  27  28
ENDBRANCH  25  26
ENDBRANCH  24  25
ENDBRANCH  22  23
ENDBRANCH  21  22
ENDBRANCH  19  20
ENDBRANCH  18  19
ENDBRANCH   1  17
TORSDOF 17
