REMARK  7 active torsions:
REMARK  status: ('A' for Active; 'I' for Inactive)
REMARK    1  A    between atoms: C1_1  and  O1_9 
REMARK    2  A    between atoms: C10_12  and  C13_15 
REMARK    3  A    between atoms: C13_15  and  C14_16 
REMARK    4  A    between atoms: C14_16  and  C15_17 
REMARK    5  A    between atoms: C15_17  and  C16_18 
REMARK    6  A    between atoms: C16_18  and  C17_19 
REMARK    7  A    between atoms: C17_19  and  O3_22 
ROOT
HETATM    1  C1  UNL     1      30.652  26.431  37.569  1.00  0.00     0.078 A 
HETATM    2  C2  UNL     1      30.577  27.822  37.761  1.00  0.00    -0.020 A 
HETATM    3  C3  UNL     1      30.900  28.346  39.033  1.00  0.00    -0.019 A 
HETATM    4  C4  UNL     1      31.173  27.462  40.100  1.00  0.00     0.083 A 
HETATM    5  C5  UNL     1      31.165  26.071  39.912  1.00  0.00    -0.015 A 
HETATM    6  C6  UNL     1      30.950  25.547  38.620  1.00  0.00    -0.019 A 
HETATM    7  C7  UNL     1      30.901  29.836  39.280  1.00  0.00     0.052 C 
HETATM    8  C8  UNL     1      30.188  28.737  36.627  1.00  0.00     0.052 C 
HETATM    9  C9  UNL     1      30.974  24.060  38.370  1.00  0.00     0.052 C 
HETATM   10  O2  UNL     1      31.415  28.051  41.316  1.00  0.00    -0.339 OA
HETATM   11  C10 UNL     1      31.933  27.234  42.390  1.00  0.00     0.064 C 
HETATM   12  C11 UNL     1      31.227  25.875  42.402  1.00  0.00     0.043 C 
HETATM   13  C12 UNL     1      31.422  25.155  41.080  1.00  0.00     0.045 C 
HETATM   14  C19 UNL     1      31.534  28.012  43.656  1.00  0.00     0.046 C 
ENDROOT
BRANCH  11  15
HETATM   15  C13 UNL     1      33.477  27.179  42.232  1.00  0.00     0.038 C 
BRANCH  15  16
HETATM   16  C14 UNL     1      34.284  26.160  43.048  1.00  0.00     0.004 C 
BRANCH  16  17
HETATM   17  C15 UNL     1      35.428  26.744  43.877  1.00  0.00     0.015 C 
BRANCH  17  18
HETATM   18  C16 UNL     1      36.809  26.221  43.447  1.00  0.00     0.079 C 
HETATM   19  C18 UNL     1      36.748  24.903  42.679  1.00  0.00     0.021 C 
BRANCH  18  20
HETATM   20  C17 UNL     1      37.515  27.268  42.614  1.00  0.00     0.143 C 
HETATM   21  O4  UNL     1      37.000  27.957  41.748  1.00  0.00    -0.650 OA
BRANCH  20  22
HETATM   22  O3  UNL     1      38.824  27.393  42.898  1.00  0.00    -0.776 OA
HETATM   23  H28 UNL     1      39.003  26.659  43.524  1.00  0.00     0.167 HD
ENDBRANCH  20  22
ENDBRANCH  18  20
ENDBRANCH  17  18
ENDBRANCH  16  17
ENDBRANCH  15  16
ENDBRANCH  11  15
BRANCH   1  24
HETATM   24  O1  UNL     1      30.431  25.877  36.334  1.00  0.00    -0.360 OA
HETATM   25  H7  UNL     1      30.213  24.938  36.448  1.00  0.00     0.217 HD
ENDBRANCH   1  24
TORSDOF 7
