REMARK  16 active torsions:
REMARK  status: ('A' for Active; 'I' for Inactive)
REMARK    1  A    between atoms: C2_2  and  O2_21 
REMARK    2  A    between atoms: C3_3  and  C6_6 
REMARK    3  A    between atoms: C4_4  and  C7_7 
REMARK    4  A    between atoms: C5_5  and  O3_22 
REMARK    5  A    between atoms: C7_7  and  C8_8 
REMARK    6  A    between atoms: C9_9  and  C10_10 
REMARK    7  A    between atoms: C10_10  and  C11_11 
REMARK    8  A    between atoms: C10_10  and  O1_20 
REMARK    9  A    between atoms: C11_11  and  C12_12 
REMARK   10  A    between atoms: C12_12  and  C13_13 
REMARK   11  A    between atoms: C15_15  and  C19_19 
REMARK   12  A    between atoms: C20_23  and  C21_24 
REMARK   13  A    between atoms: C21_24  and  C22_25 
REMARK   14  A    between atoms: C22_25  and  C23_26 
REMARK   15  A    between atoms: C23_26  and  C24_27 
REMARK       I    between atoms: C24_27  and  N1_28 
REMARK   16  A    between atoms: N1_28  and  C25_30 
ROOT
HETATM    1  C1  UNL     1      30.684  28.976  35.528  1.00  0.00     0.064 C 
HETATM    2  C2  UNL     1      30.748  27.481  35.789  1.00  0.00     0.128 C 
HETATM    3  C3  UNL     1      31.116  27.422  37.280  1.00  0.00     0.043 C 
HETATM    4  C4  UNL     1      30.207  28.511  37.897  1.00  0.00     0.028 C 
HETATM    5  C5  UNL     1      29.995  29.548  36.765  1.00  0.00     0.125 C 
ENDROOT
BRANCH   3   6
HETATM    6  C6  UNL     1      30.878  26.053  37.874  1.00  0.00    -0.021 C 
HETATM    7  C9  UNL     1      31.280  25.696  39.106  1.00  0.00     0.001 C 
BRANCH   7   8
HETATM    8  C10 UNL     1      31.069  24.368  39.793  1.00  0.00     0.141 C 
BRANCH   8   9
HETATM    9  C11 UNL     1      31.553  24.269  41.249  1.00  0.00     0.040 C 
BRANCH   9  10
HETATM   10  C12 UNL     1      31.174  25.476  42.115  1.00  0.00     0.041 C 
BRANCH  10  11
HETATM   11  C13 UNL     1      32.333  26.373  42.469  1.00  0.00    -0.057 A 
HETATM   12  C14 UNL     1      33.614  26.103  41.968  1.00  0.00     0.023 A 
HETATM   13  C15 UNL     1      34.706  26.930  42.284  1.00  0.00     0.048 A 
HETATM   14  C16 UNL     1      34.496  28.044  43.107  1.00  0.00     0.016 A 
HETATM   15  C17 UNL     1      33.225  28.317  43.615  1.00  0.00     0.001 A 
HETATM   16  C18 UNL     1      32.150  27.485  43.300  1.00  0.00     0.007 A 
BRANCH  13  17
HETATM   17  C19 UNL     1      36.070  26.627  41.715  1.00  0.00     0.417 C 
HETATM   18  F1  UNL     1      36.035  26.331  40.385  1.00  0.00    -0.166 F 
HETATM   19  F2  UNL     1      36.931  27.676  41.843  1.00  0.00    -0.166 F 
HETATM   20  F3  UNL     1      36.684  25.567  42.312  1.00  0.00    -0.166 F 
ENDBRANCH  13  17
ENDBRANCH  10  11
ENDBRANCH   9  10
ENDBRANCH   8   9
BRANCH   8  21
HETATM   21  O1  UNL     1      31.748  23.382  39.016  1.00  0.00    -0.392 OA
HETATM   22  H21 UNL     1      32.419  23.855  38.494  1.00  0.00     0.210 HD
ENDBRANCH   8  21
ENDBRANCH   7   8
ENDBRANCH   3   6
BRANCH   2  23
HETATM   23  O2  UNL     1      31.725  26.878  34.958  1.00  0.00    -0.395 OA
HETATM   24  H22 UNL     1      32.546  26.809  35.478  1.00  0.00     0.210 HD
ENDBRANCH   2  23
BRANCH   4  25
HETATM   25  C7  UNL     1      30.657  29.028  39.273  1.00  0.00     0.034 C 
BRANCH  25  26
HETATM   26  C8  UNL     1      29.925  28.477  40.463  1.00  0.00    -0.030 C 
HETATM   27  C20 UNL     1      28.660  28.727  40.840  1.00  0.00    -0.031 C 
BRANCH  27  28
HETATM   28  C21 UNL     1      27.643  29.619  40.187  1.00  0.00     0.027 C 
BRANCH  28  29
HETATM   29  C22 UNL     1      27.140  30.772  41.074  1.00  0.00     0.013 C 
BRANCH  29  30
HETATM   30  C23 UNL     1      27.947  32.069  40.933  1.00  0.00     0.103 C 
BRANCH  30  31
HETATM   31  C24 UNL     1      28.380  32.339  39.500  1.00  0.00     0.217 C 
HETATM   32  N1  UNL     1      27.324  32.452  38.622  1.00  0.00    -0.361 N 
HETATM   33  H31 UNL     1      26.383  32.278  38.954  1.00  0.00     0.162 HD
HETATM   34  O4  UNL     1      29.554  32.476  39.169  1.00  0.00    -0.274 OA
BRANCH  32  35
HETATM   35  C25 UNL     1      27.522  32.624  37.197  1.00  0.00     0.118 C 
HETATM   36  C26 UNL     1      26.930  31.467  36.410  1.00  0.00     0.026 C 
ENDBRANCH  32  35
ENDBRANCH  30  31
ENDBRANCH  29  30
ENDBRANCH  28  29
ENDBRANCH  27  28
ENDBRANCH  25  26
ENDBRANCH   4  25
BRANCH   5  37
HETATM   37  O3  UNL     1      30.480  30.851  37.028  1.00  0.00    -0.395 OA
HETATM   38  H23 UNL     1      29.724  31.461  37.036  1.00  0.00     0.210 HD
ENDBRANCH   5  37
TORSDOF 16
