REMARK  16 active torsions:
REMARK  status: ('A' for Active; 'I' for Inactive)
REMARK    1  A    between atoms: C1_1  and  C2_2 
REMARK    2  A    between atoms: C1_1  and  C20_23 
REMARK    3  A    between atoms: C2_2  and  C3_3 
REMARK    4  A    between atoms: C3_3  and  C4_4 
REMARK    5  A    between atoms: C5_5  and  C6_6 
REMARK    6  A    between atoms: C6_6  and  C7_7 
REMARK    7  A    between atoms: C8_8  and  O1_13 
REMARK    8  A    between atoms: C10_10  and  O2_14 
REMARK    9  A    between atoms: C11_11  and  C12_12 
REMARK   10  A    between atoms: C13_15  and  C14_16 
REMARK   11  A    between atoms: C14_16  and  C15_17 
REMARK   12  A    between atoms: C14_16  and  O3_18 
REMARK   13  A    between atoms: C15_17  and  C16_19 
REMARK   14  A    between atoms: C16_19  and  C17_20 
REMARK   15  A    between atoms: C17_20  and  C18_21 
REMARK   16  A    between atoms: C20_23  and  O5_25 
ROOT
HETATM    1  C7  UNL     1      30.365  28.233  39.962  1.00  0.00     0.028 C 
HETATM    2  C8  UNL     1      30.720  28.085  41.449  1.00  0.00     0.125 C 
HETATM    3  C9  UNL     1      30.904  26.581  41.680  1.00  0.00     0.064 C 
HETATM    4  C10 UNL     1      31.178  25.978  40.296  1.00  0.00     0.128 C 
HETATM    5  C11 UNL     1      31.308  27.177  39.330  1.00  0.00     0.043 C 
ENDROOT
BRANCH   1   6
HETATM    6  C6  UNL     1      28.866  27.975  39.691  1.00  0.00     0.034 C 
BRANCH   6   7
HETATM    7  C5  UNL     1      28.011  29.178  39.991  1.00  0.00    -0.030 C 
HETATM    8  C4  UNL     1      27.566  30.107  39.127  1.00  0.00    -0.031 C 
BRANCH   8   9
HETATM    9  C3  UNL     1      27.818  30.184  37.647  1.00  0.00     0.027 C 
BRANCH   9  10
HETATM   10  C2  UNL     1      28.595  31.450  37.288  1.00  0.00     0.014 C 
BRANCH  10  11
HETATM   11  C1  UNL     1      30.018  31.393  37.828  1.00  0.00     0.110 C 
BRANCH  11  12
HETATM   12  C20 UNL     1      30.319  32.569  38.713  1.00  0.00     0.139 C 
HETATM   13  O4  UNL     1      29.803  32.808  39.792  1.00  0.00    -0.650 OA
BRANCH  12  14
HETATM   14  O5  UNL     1      31.276  33.374  38.213  1.00  0.00    -0.776 OA
HETATM   15  H34 UNL     1      31.813  32.780  37.649  1.00  0.00     0.167 HD
ENDBRANCH  12  14
ENDBRANCH  11  12
ENDBRANCH  10  11
ENDBRANCH   9  10
ENDBRANCH   8   9
ENDBRANCH   6   7
ENDBRANCH   1   6
BRANCH   2  16
HETATM   16  O1  UNL     1      31.958  28.758  41.688  1.00  0.00    -0.395 OA
HETATM   17  H27 UNL     1      32.091  29.393  40.964  1.00  0.00     0.210 HD
ENDBRANCH   2  16
BRANCH   5  18
HETATM   18  C12 UNL     1      31.083  26.807  37.880  1.00  0.00    -0.021 C 
HETATM   19  C13 UNL     1      31.232  27.656  36.847  1.00  0.00     0.001 C 
BRANCH  19  20
HETATM   20  C14 UNL     1      31.020  27.352  35.383  1.00  0.00     0.140 C 
BRANCH  20  21
HETATM   21  C15 UNL     1      30.037  28.349  34.749  1.00  0.00     0.036 C 
BRANCH  21  22
HETATM   22  C16 UNL     1      29.657  28.034  33.293  1.00  0.00     0.003 C 
BRANCH  22  23
HETATM   23  C17 UNL     1      29.110  26.622  33.073  1.00  0.00    -0.000 C 
BRANCH  23  24
HETATM   24  C18 UNL     1      27.616  26.599  32.735  1.00  0.00    -0.005 C 
HETATM   25  C19 UNL     1      26.991  27.983  32.657  1.00  0.00     0.005 C 
ENDBRANCH  23  24
ENDBRANCH  22  23
ENDBRANCH  21  22
ENDBRANCH  20  21
BRANCH  20  26
HETATM   26  O3  UNL     1      32.267  27.383  34.700  1.00  0.00    -0.392 OA
HETATM   27  H33 UNL     1      32.909  27.797  35.302  1.00  0.00     0.210 HD
ENDBRANCH  20  26
ENDBRANCH  19  20
ENDBRANCH   5  18
BRANCH   4  28
HETATM   28  O2  UNL     1      32.363  25.193  40.339  1.00  0.00    -0.395 OA
HETATM   29  H28 UNL     1      33.003  25.588  39.724  1.00  0.00     0.210 HD
ENDBRANCH   4  28
TORSDOF 16
