REMARK  15 active torsions:
REMARK  status: ('A' for Active; 'I' for Inactive)
REMARK    1  A    between atoms: C2_2  and  O2_7 
REMARK    2  A    between atoms: C3_3  and  C7_9 
REMARK    3  A    between atoms: C4_4  and  C6_8 
REMARK    4  A    between atoms: C5_5  and  O1_6 
REMARK    5  A    between atoms: C6_8  and  C9_11 
REMARK    6  A    between atoms: C8_10  and  C10_12 
REMARK    7  A    between atoms: C10_12  and  C12_14 
REMARK    8  A    between atoms: C10_12  and  O3_24 
REMARK    9  A    between atoms: C11_13  and  C13_15 
REMARK   10  A    between atoms: C12_14  and  C19_22 
REMARK   11  A    between atoms: C13_15  and  C14_16 
REMARK   12  A    between atoms: C14_16  and  C15_17 
REMARK   13  A    between atoms: C15_17  and  C16_18 
REMARK       I    between atoms: C16_18  and  N1_19 
REMARK   14  A    between atoms: N1_19  and  C17_20 
REMARK   15  A    between atoms: C19_22  and  C20_23 
ROOT
HETATM    1  C1  UNL     1      28.872  31.070  40.978  1.00  0.00     0.064 C 
HETATM    2  C2  UNL     1      27.949  29.919  40.566  1.00  0.00     0.128 C 
HETATM    3  C3  UNL     1      28.371  29.505  39.138  1.00  0.00     0.043 C 
HETATM    4  C4  UNL     1      29.011  30.794  38.561  1.00  0.00     0.028 C 
HETATM    5  C5  UNL     1      29.791  31.315  39.781  1.00  0.00     0.125 C 
ENDROOT
BRANCH   3   6
HETATM    6  C7  UNL     1      29.344  28.341  39.022  1.00  0.00    -0.021 C 
HETATM    7  C8  UNL     1      29.855  27.588  40.011  1.00  0.00     0.001 C 
BRANCH   7   8
HETATM    8  C10 UNL     1      30.822  26.459  39.804  1.00  0.00     0.141 C 
BRANCH   8   9
HETATM    9  C12 UNL     1      31.073  25.592  41.047  1.00  0.00     0.040 C 
BRANCH   9  10
HETATM   10  C19 UNL     1      31.045  26.297  42.413  1.00  0.00     0.041 C 
BRANCH  10  11
HETATM   11  C20 UNL     1      32.361  26.839  42.914  1.00  0.00    -0.057 A 
HETATM   12  C21 UNL     1      32.444  28.122  43.473  1.00  0.00     0.007 A 
HETATM   13  C25 UNL     1      33.666  28.623  43.927  1.00  0.00     0.002 A 
HETATM   14  C24 UNL     1      34.821  27.850  43.823  1.00  0.00     0.024 A 
HETATM   15  C23 UNL     1      34.748  26.578  43.262  1.00  0.00     0.034 A 
HETATM   16  C22 UNL     1      33.532  26.076  42.801  1.00  0.00     0.031 A 
HETATM   17 CL1  UNL     1      36.170  25.617  43.132  1.00  0.00    -0.084 Cl
ENDBRANCH  10  11
ENDBRANCH   9  10
ENDBRANCH   8   9
BRANCH   8  18
HETATM   18  O3  UNL     1      32.046  27.017  39.345  1.00  0.00    -0.392 OA
HETATM   19  H32 UNL     1      32.502  27.382  40.121  1.00  0.00     0.210 HD
ENDBRANCH   8  18
ENDBRANCH   7   8
ENDBRANCH   3   6
BRANCH   2  20
HETATM   20  O2  UNL     1      26.595  30.376  40.540  1.00  0.00    -0.395 OA
HETATM   21  H8  UNL     1      26.224  30.247  41.429  1.00  0.00     0.210 HD
ENDBRANCH   2  20
BRANCH   4  22
HETATM   22  C6  UNL     1      27.944  31.773  38.018  1.00  0.00     0.034 C 
BRANCH  22  23
HETATM   23  C9  UNL     1      26.890  31.074  37.198  1.00  0.00    -0.030 C 
HETATM   24  C11 UNL     1      26.976  30.667  35.921  1.00  0.00    -0.031 C 
BRANCH  24  25
HETATM   25  C13 UNL     1      28.149  30.788  34.990  1.00  0.00     0.027 C 
BRANCH  25  26
HETATM   26  C14 UNL     1      27.831  30.168  33.627  1.00  0.00     0.013 C 
BRANCH  26  27
HETATM   27  C15 UNL     1      29.086  29.668  32.911  1.00  0.00     0.103 C 
BRANCH  27  28
HETATM   28  C16 UNL     1      29.370  28.195  33.144  1.00  0.00     0.217 C 
HETATM   29  N1  UNL     1      30.291  27.983  34.152  1.00  0.00    -0.361 N 
HETATM   30  H24 UNL     1      30.461  28.744  34.796  1.00  0.00     0.162 HD
HETATM   31  O4  UNL     1      28.861  27.290  32.494  1.00  0.00    -0.274 OA
BRANCH  29  32
HETATM   32  C17 UNL     1      30.597  26.639  34.598  1.00  0.00     0.118 C 
HETATM   33  C18 UNL     1      30.708  26.570  36.108  1.00  0.00     0.026 C 
ENDBRANCH  29  32
ENDBRANCH  27  28
ENDBRANCH  26  27
ENDBRANCH  25  26
ENDBRANCH  24  25
ENDBRANCH  22  23
ENDBRANCH   4  22
BRANCH   5  34
HETATM   34  O1  UNL     1      30.162  32.676  39.687  1.00  0.00    -0.395 OA
HETATM   35  H7  UNL     1      30.282  32.889  38.746  1.00  0.00     0.210 HD
ENDBRANCH   5  34
TORSDOF 15
