REMARK  7 active torsions:
REMARK  status: ('A' for Active; 'I' for Inactive)
REMARK    1  A    between atoms: C4_4  and  O1_8 
REMARK    2  A    between atoms: O1_8  and  C7_9 
REMARK    3  A    between atoms: C12_14  and  C13_16 
REMARK       I    between atoms: C13_16  and  N1_17 
REMARK    4  A    between atoms: N1_17  and  C14_19 
REMARK    5  A    between atoms: C14_19  and  C15_20 
REMARK    6  A    between atoms: C19_24  and  C22_27 
REMARK    7  A    between atoms: C22_27  and  O4_29 
ROOT
HETATM    1  C13 UNL     1      31.072  27.235  39.758  1.00  0.00     0.255 C 
HETATM    2  N1  UNL     1      32.348  27.008  40.218  1.00  0.00    -0.349 N 
HETATM    3  O2  UNL     1      30.061  26.973  40.400  1.00  0.00    -0.268 OA
HETATM    4  H8  UNL     1      33.117  27.386  39.679  1.00  0.00     0.163 HD
ENDROOT
BRANCH   1   5
HETATM    5  C12 UNL     1      30.940  27.819  38.396  1.00  0.00     0.067 A 
HETATM    6  C7  UNL     1      30.620  29.165  38.158  1.00  0.00     0.091 A 
HETATM    7  C8  UNL     1      30.511  29.649  36.849  1.00  0.00     0.040 A 
HETATM    8  C9  UNL     1      30.681  28.780  35.771  1.00  0.00     0.026 A 
HETATM    9  C10 UNL     1      30.966  27.435  36.004  1.00  0.00     0.035 A 
HETATM   10  C11 UNL     1      31.093  26.950  37.305  1.00  0.00     0.043 A 
HETATM   11 CL1  UNL     1      31.164  26.365  34.672  1.00  0.00    -0.084 Cl
BRANCH   6  12
HETATM   12  O1  UNL     1      30.456  30.053  39.195  1.00  0.00    -0.310 OA
BRANCH  12  13
HETATM   13  C4  UNL     1      29.177  30.231  39.683  1.00  0.00     0.076 A 
HETATM   14  C3  UNL     1      28.145  29.957  38.778  1.00  0.00     0.040 A 
HETATM   15  C2  UNL     1      26.814  30.144  39.155  1.00  0.00     0.045 A 
HETATM   16  C1  UNL     1      26.524  30.612  40.431  1.00  0.00     0.116 A 
HETATM   17  C6  UNL     1      27.540  30.898  41.335  1.00  0.00     0.045 A 
HETATM   18  F1  UNL     1      25.248  30.801  40.792  1.00  0.00    -0.206 F 
HETATM   19  C5  UNL     1      28.873  30.713  40.961  1.00  0.00     0.040 A 
ENDBRANCH  12  13
ENDBRANCH   6  12
ENDBRANCH   1   5
BRANCH   2  20
HETATM   20  C14 UNL     1      32.618  26.727  41.620  1.00  0.00     0.114 C 
HETATM   21  C16 UNL     1      32.334  25.255  41.919  1.00  0.00     0.037 C 
BRANCH  20  22
HETATM   22  C15 UNL     1      34.039  27.175  41.933  1.00  0.00    -0.036 A 
HETATM   23  C17 UNL     1      35.102  26.621  41.196  1.00  0.00     0.010 A 
HETATM   24  C18 UNL     1      36.430  26.936  41.498  1.00  0.00     0.019 A 
HETATM   25  C19 UNL     1      36.718  27.808  42.551  1.00  0.00     0.037 A 
HETATM   26  C20 UNL     1      35.671  28.372  43.288  1.00  0.00     0.019 A 
HETATM   27  C21 UNL     1      34.343  28.053  42.985  1.00  0.00     0.010 A 
BRANCH  25  28
HETATM   28  C22 UNL     1      38.108  28.140  42.944  1.00  0.00     0.176 C 
HETATM   29  O3  UNL     1      39.063  28.203  42.192  1.00  0.00    -0.646 OA
BRANCH  28  30
HETATM   30  O4  UNL     1      38.234  28.392  44.259  1.00  0.00    -0.773 OA
HETATM   31  H17 UNL     1      39.143  28.093  44.469  1.00  0.00     0.167 HD
ENDBRANCH  28  30
ENDBRANCH  25  28
ENDBRANCH  20  22
ENDBRANCH   2  20
TORSDOF 7
