REMARK  3 active torsions:
REMARK  status: ('A' for Active; 'I' for Inactive)
REMARK    1  A    between atoms: C6_7  and  S1_11 
REMARK    2  A    between atoms: C10_15  and  C11_16 
REMARK    3  A    between atoms: C11_16  and  N3_17 
REMARK       I    between atoms: N3_17  and  C12_18 
REMARK       I    between atoms: C12_18  and  N4_19 
ROOT
HETATM    1  S1  UNL     1      30.281  28.564  38.762  1.00  0.00     0.242 SA
HETATM    2  N2  UNL     1      28.636  29.010  39.031  1.00  0.00    -0.214 N 
HETATM    3  O1  UNL     1      31.090  29.826  38.867  1.00  0.00    -0.206 OA
HETATM    4  O2  UNL     1      30.487  28.014  37.388  1.00  0.00    -0.206 OA
HETATM    5  C10 UNL     1      28.499  29.658  40.346  1.00  0.00     0.124 A 
HETATM    6 CL1  UNL     1      28.676  28.459  39.434  1.00  0.00    -0.145 Cl
HETATM    7 CL2  UNL     1      28.672  28.465  39.431  1.00  0.00    -0.145 Cl
HETATM    8  H7  UNL     1      28.000  28.161  39.135  1.00  0.00     0.140 HD
HETATM    9  H16 UNL     1      29.417  27.408  39.896  1.00  0.00     0.145 HD
HETATM   10  H17 UNL     1      29.421  27.402  39.899  1.00  0.00     0.145 HD
ENDROOT
BRANCH   1  11
HETATM   11  C6  UNL     1      30.889  27.415  39.920  1.00  0.00     0.085 A 
HETATM   12  C3  UNL     1      31.009  26.069  39.660  1.00  0.00    -0.000 A 
HETATM   13  C2  UNL     1      30.702  25.550  38.424  1.00  0.00     0.033 A 
HETATM   14  C4  UNL     1      31.457  25.164  40.617  1.00  0.00    -0.007 A 
HETATM   15  C1  UNL     1      30.813  24.222  38.106  1.00  0.00     0.117 A 
HETATM   16  N1  UNL     1      31.247  23.382  39.058  1.00  0.00    -0.272 NA
HETATM   17  C5  UNL     1      31.572  23.825  40.306  1.00  0.00     0.128 A 
HETATM   18  C9  UNL     1      31.800  25.602  41.878  1.00  0.00     0.014 A 
HETATM   19  C8  UNL     1      31.687  26.949  42.153  1.00  0.00     0.002 A 
HETATM   20  C7  UNL     1      31.243  27.819  41.196  1.00  0.00     0.026 A 
ENDBRANCH   1  11
BRANCH   5  21
HETATM   21  C11 UNL     1      27.077  30.031  40.537  1.00  0.00     0.153 C 
BRANCH  21  22
HETATM   22  N3  UNL     1      26.801  31.339  41.019  1.00  0.00    -0.224 N 
HETATM   23  C12 UNL     1      27.380  32.465  40.383  1.00  0.00     0.686 C 
HETATM   24  N4  UNL     1      27.898  33.574  41.105  1.00  0.00    -0.234 N 
HETATM   25  N5  UNL     1      27.444  32.518  39.074  1.00  0.00    -0.118 NA
HETATM   26  H13 UNL     1      27.300  34.430  41.143  1.00  0.00     0.174 HD
HETATM   27  H14 UNL     1      28.833  33.496  41.560  1.00  0.00     0.174 HD
HETATM   28  H15 UNL     1      27.855  33.314  38.571  1.00  0.00     0.206 HD
HETATM   29  H12 UNL     1      26.182  31.554  41.839  1.00  0.00     0.177 HD
ENDBRANCH  21  22
ENDBRANCH   5  21
TORSDOF 3
