REMARK  16 active torsions:
REMARK  status: ('A' for Active; 'I' for Inactive)
REMARK    1  A    between atoms: C1_1  and  O2_7 
REMARK    2  A    between atoms: C2_2  and  C7_9 
REMARK    3  A    between atoms: C3_3  and  C6_8 
REMARK    4  A    between atoms: C4_4  and  O1_6 
REMARK    5  A    between atoms: C6_8  and  C8_10 
REMARK    6  A    between atoms: C9_11  and  C11_13 
REMARK    7  A    between atoms: C10_12  and  C15_17 
REMARK    8  A    between atoms: C11_13  and  C12_14 
REMARK    9  A    between atoms: C11_13  and  O3_25 
REMARK   10  A    between atoms: C12_14  and  C13_15 
REMARK   11  A    between atoms: C13_15  and  C14_16 
REMARK   12  A    between atoms: C15_17  and  C16_18 
REMARK   13  A    between atoms: C16_18  and  C17_19 
REMARK   14  A    between atoms: C17_19  and  C24_27 
REMARK   15  A    between atoms: C19_21  and  C23_26 
REMARK   16  A    between atoms: C24_27  and  O5_32 
ROOT
HETATM    1  C1  UNL     1      27.974  29.624  40.698  1.00  0.00     0.128 C 
HETATM    2  C2  UNL     1      28.348  29.322  39.229  1.00  0.00     0.043 C 
HETATM    3  C3  UNL     1      28.942  30.663  38.723  1.00  0.00     0.028 C 
HETATM    4  C4  UNL     1      29.751  31.114  39.950  1.00  0.00     0.125 C 
HETATM    5  C5  UNL     1      28.863  30.786  41.150  1.00  0.00     0.064 C 
ENDROOT
BRANCH   2   6
HETATM    6  C7  UNL     1      29.340  28.194  38.993  1.00  0.00    -0.021 C 
HETATM    7  C9  UNL     1      29.865  27.344  39.892  1.00  0.00     0.001 C 
BRANCH   7   8
HETATM    8  C11 UNL     1      30.885  26.294  39.562  1.00  0.00     0.141 C 
BRANCH   8   9
HETATM    9  C12 UNL     1      31.266  25.420  40.759  1.00  0.00     0.040 C 
BRANCH   9  10
HETATM   10  C13 UNL     1      30.948  26.077  42.103  1.00  0.00     0.041 C 
BRANCH  10  11
HETATM   11  C14 UNL     1      32.176  26.704  42.717  1.00  0.00    -0.057 A 
HETATM   12  C18 UNL     1      33.405  26.028  42.697  1.00  0.00     0.023 A 
HETATM   13  C19 UNL     1      34.558  26.610  43.251  1.00  0.00     0.048 A 
HETATM   14  C20 UNL     1      34.468  27.893  43.811  1.00  0.00     0.016 A 
HETATM   15  C21 UNL     1      33.252  28.573  43.829  1.00  0.00     0.001 A 
HETATM   16  C22 UNL     1      32.111  27.982  43.284  1.00  0.00     0.007 A 
BRANCH  13  17
HETATM   17  C23 UNL     1      35.881  25.887  43.202  1.00  0.00     0.417 C 
HETATM   18  F1  UNL     1      35.825  24.629  43.725  1.00  0.00    -0.166 F 
HETATM   19  F2  UNL     1      36.869  26.529  43.888  1.00  0.00    -0.166 F 
HETATM   20  F3  UNL     1      36.343  25.739  41.929  1.00  0.00    -0.166 F 
ENDBRANCH  13  17
ENDBRANCH  10  11
ENDBRANCH   9  10
ENDBRANCH   8   9
BRANCH   8  21
HETATM   21  O3  UNL     1      32.042  27.002  39.122  1.00  0.00    -0.392 OA
HETATM   22  H30 UNL     1      32.756  26.809  39.753  1.00  0.00     0.210 HD
ENDBRANCH   8  21
ENDBRANCH   7   8
ENDBRANCH   2   6
BRANCH   1  23
HETATM   23  O2  UNL     1      26.607  30.034  40.781  1.00  0.00    -0.395 OA
HETATM   24  H8  UNL     1      26.121  29.572  40.075  1.00  0.00     0.210 HD
ENDBRANCH   1  23
BRANCH   3  25
HETATM   25  C6  UNL     1      27.833  31.648  38.286  1.00  0.00     0.034 C 
BRANCH  25  26
HETATM   26  C8  UNL     1      26.785  31.006  37.413  1.00  0.00    -0.030 C 
HETATM   27  C10 UNL     1      26.789  30.892  36.075  1.00  0.00    -0.031 C 
BRANCH  27  28
HETATM   28  C15 UNL     1      27.873  31.323  35.128  1.00  0.00     0.027 C 
BRANCH  28  29
HETATM   29  C16 UNL     1      28.319  30.214  34.166  1.00  0.00     0.013 C 
BRANCH  29  30
HETATM   30  C17 UNL     1      29.376  29.264  34.727  1.00  0.00     0.111 C 
BRANCH  30  31
HETATM   31  C24 UNL     1      29.815  28.247  33.704  1.00  0.00     0.258 C 
HETATM   32  O4  UNL     1      29.383  28.186  32.561  1.00  0.00    -0.265 OA
BRANCH  31  33
HETATM   33  O5  UNL     1      30.761  27.422  34.231  1.00  0.00    -0.326 OA
HETATM   34  C25 UNL     1      30.969  27.595  35.634  1.00  0.00     0.213 C 
ENDBRANCH  31  33
ENDBRANCH  30  31
ENDBRANCH  29  30
ENDBRANCH  28  29
ENDBRANCH  27  28
ENDBRANCH  25  26
ENDBRANCH   3  25
BRANCH   4  35
HETATM   35  O1  UNL     1      30.118  32.479  39.927  1.00  0.00    -0.395 OA
HETATM   36  H7  UNL     1      30.193  32.781  40.847  1.00  0.00     0.210 HD
ENDBRANCH   4  35
TORSDOF 16
