REMARK  16 active torsions:
REMARK  status: ('A' for Active; 'I' for Inactive)
REMARK    1  A    between atoms: C1_1  and  O2_23 
REMARK    2  A    between atoms: C2_2  and  C12_12 
REMARK    3  A    between atoms: C3_3  and  C6_6 
REMARK    4  A    between atoms: C4_4  and  O3_24 
REMARK    5  A    between atoms: C6_6  and  C7_7 
REMARK    6  A    between atoms: C8_8  and  C9_9 
REMARK    7  A    between atoms: C9_9  and  C10_10 
REMARK    8  A    between atoms: C10_10  and  C11_11 
REMARK    9  A    between atoms: C11_11  and  C22_26 
REMARK   10  A    between atoms: C13_13  and  C14_14 
REMARK   11  A    between atoms: C14_14  and  C15_15 
REMARK   12  A    between atoms: C14_14  and  O4_25 
REMARK   13  A    between atoms: C15_15  and  O1_16 
REMARK   14  A    between atoms: O1_16  and  C16_17 
REMARK   15  A    between atoms: C22_26  and  O6_28 
REMARK   16  A    between atoms: O6_28  and  C23_29 
ROOT
HETATM    1  C1  UNL     1      28.423  31.547  37.324  1.00  0.00     0.128 C 
HETATM    2  C2  UNL     1      29.689  30.718  37.611  1.00  0.00     0.043 C 
HETATM    3  C3  UNL     1      29.490  30.314  39.084  1.00  0.00     0.028 C 
HETATM    4  C4  UNL     1      28.947  31.610  39.713  1.00  0.00     0.125 C 
HETATM    5  C5  UNL     1      28.093  32.272  38.631  1.00  0.00     0.064 C 
ENDROOT
BRANCH   2   6
HETATM    6  C12 UNL     1      29.881  29.631  36.574  1.00  0.00    -0.021 C 
HETATM    7  C13 UNL     1      30.823  28.671  36.544  1.00  0.00     0.003 C 
BRANCH   7   8
HETATM    8  C14 UNL     1      30.992  27.605  35.484  1.00  0.00     0.165 C 
BRANCH   8   9
HETATM    9  C15 UNL     1      30.639  26.197  36.006  1.00  0.00     0.211 C 
BRANCH   9  10
HETATM   10  O1  UNL     1      29.996  26.267  37.290  1.00  0.00    -0.348 OA
BRANCH  10  11
HETATM   11  C16 UNL     1      30.490  25.472  38.289  1.00  0.00     0.068 A 
HETATM   12  C17 UNL     1      30.876  24.134  38.161  1.00  0.00     0.037 A 
HETATM   13  C18 UNL     1      31.353  23.430  39.270  1.00  0.00     0.003 A 
HETATM   14  C19 UNL     1      31.449  24.053  40.515  1.00  0.00     0.000 A 
HETATM   15  C20 UNL     1      31.063  25.385  40.653  1.00  0.00     0.003 A 
HETATM   16  C21 UNL     1      30.582  26.088  39.543  1.00  0.00     0.037 A 
ENDBRANCH  10  11
ENDBRANCH   9  10
ENDBRANCH   8   9
BRANCH   8  17
HETATM   17  O4  UNL     1      32.335  27.599  34.993  1.00  0.00    -0.390 OA
HETATM   18  H29 UNL     1      32.369  28.264  34.286  1.00  0.00     0.210 HD
ENDBRANCH   8  17
ENDBRANCH   7   8
ENDBRANCH   2   6
BRANCH   1  19
HETATM   19  O2  UNL     1      28.662  32.480  36.276  1.00  0.00    -0.395 OA
HETATM   20  H27 UNL     1      28.070  32.249  35.536  1.00  0.00     0.210 HD
ENDBRANCH   1  19
BRANCH   3  21
HETATM   21  C6  UNL     1      30.703  29.689  39.794  1.00  0.00     0.034 C 
BRANCH  21  22
HETATM   22  C7  UNL     1      30.522  29.295  41.233  1.00  0.00    -0.030 C 
HETATM   23  C8  UNL     1      31.370  28.600  42.011  1.00  0.00    -0.031 C 
BRANCH  23  24
HETATM   24  C9  UNL     1      32.688  27.990  41.615  1.00  0.00     0.027 C 
BRANCH  24  25
HETATM   25  C10 UNL     1      33.419  27.338  42.792  1.00  0.00     0.013 C 
BRANCH  25  26
HETATM   26  C11 UNL     1      34.284  26.150  42.367  1.00  0.00     0.111 C 
BRANCH  26  27
HETATM   27  C22 UNL     1      35.649  26.607  41.907  1.00  0.00     0.259 C 
HETATM   28  O5  UNL     1      35.914  27.011  40.783  1.00  0.00    -0.265 OA
BRANCH  27  29
HETATM   29  O6  UNL     1      36.529  26.536  42.946  1.00  0.00    -0.317 OA
BRANCH  29  30
HETATM   30  C23 UNL     1      36.751  27.761  43.670  1.00  0.00     0.123 C 
HETATM   31  C24 UNL     1      38.158  28.240  43.329  1.00  0.00     0.040 C 
HETATM   32  C25 UNL     1      36.619  27.488  45.163  1.00  0.00     0.040 C 
ENDBRANCH  29  30
ENDBRANCH  27  29
ENDBRANCH  26  27
ENDBRANCH  25  26
ENDBRANCH  24  25
ENDBRANCH  23  24
ENDBRANCH  21  22
ENDBRANCH   3  21
BRANCH   4  33
HETATM   33  O3  UNL     1      29.951  32.527  40.126  1.00  0.00    -0.395 OA
HETATM   34  H28 UNL     1      30.535  32.091  40.769  1.00  0.00     0.210 HD
ENDBRANCH   4  33
TORSDOF 16
