REMARK  4 active torsions:
REMARK  status: ('A' for Active; 'I' for Inactive)
REMARK    1  A    between atoms: C4_4  and  C8_8 
REMARK       I    between atoms: C8_8  and  N1_10 
REMARK    2  A    between atoms: N1_10  and  C9_11 
REMARK    3  A    between atoms: C12_14  and  C15_17 
REMARK       I    between atoms: C15_17  and  N2_19 
REMARK    4  A    between atoms: C18_22  and  N3_30 
ROOT
HETATM    1  C9  UNL     1      33.182  27.327  42.028  1.00  0.00     0.035 A 
HETATM    2  C10 UNL     1      32.737  27.394  40.737  1.00  0.00     0.030 A 
HETATM    3  C11 UNL     1      31.642  28.167  40.415  1.00  0.00     0.019 A 
HETATM    4  C12 UNL     1      30.957  28.902  41.385  1.00  0.00     0.032 A 
HETATM    5  C13 UNL     1      31.428  28.815  42.666  1.00  0.00     0.019 A 
HETATM    6  C14 UNL     1      32.512  28.057  43.022  1.00  0.00     0.030 A 
HETATM    7 CL1  UNL     1      31.199  28.551  42.545  1.00  0.00    -0.145 Cl
HETATM    8  H30 UNL     1      30.056  29.311  42.499  1.00  0.00     0.145 HD
ENDROOT
BRANCH   4   9
HETATM    9  C15 UNL     1      29.841  29.754  40.977  1.00  0.00     0.258 C 
HETATM   10  O2  UNL     1      29.261  30.444  41.869  1.00  0.00    -0.267 OA
HETATM   11  N2  UNL     1      29.402  29.827  39.656  1.00  0.00    -0.313 N 
HETATM   12  C16 UNL     1      27.998  30.012  39.426  1.00  0.00     0.045 A 
HETATM   13  C21 UNL     1      30.360  29.862  38.547  1.00  0.00     0.133 C 
HETATM   14  C17 UNL     1      27.327  30.536  38.310  1.00  0.00     0.002 A 
HETATM   15  C22 UNL     1      27.230  29.646  40.508  1.00  0.00     0.030 A 
HETATM   16  C18 UNL     1      28.107  30.891  37.076  1.00  0.00     0.257 C 
HETATM   17  C25 UNL     1      25.978  30.704  38.250  1.00  0.00     0.012 A 
HETATM   18  C19 UNL     1      29.187  31.873  37.460  1.00  0.00     0.042 C 
HETATM   19  C20 UNL     1      30.388  31.289  38.035  1.00  0.00     0.023 C 
HETATM   20  C24 UNL     1      25.234  30.328  39.360  1.00  0.00     0.001 A 
HETATM   21  C23 UNL     1      25.860  29.805  40.470  1.00  0.00     0.002 A 
BRANCH  16  22
HETATM   22  N3  UNL     1      27.294  31.328  36.000  1.00  0.00     0.088 N 
HETATM   23  C26 UNL     1      27.573  32.752  35.727  1.00  0.00     0.310 C 
HETATM   24  C27 UNL     1      27.881  30.676  34.786  1.00  0.00     0.310 C 
ENDBRANCH  16  22
ENDBRANCH   4   9
BRANCH   1  25
HETATM   25  N1  UNL     1      34.285  26.530  42.416  1.00  0.00    -0.323 N 
HETATM   26  C8  UNL     1      35.515  26.464  41.774  1.00  0.00     0.256 C 
HETATM   27  O1  UNL     1      35.766  27.160  40.735  1.00  0.00    -0.267 OA
HETATM   28  H8  UNL     1      34.143  25.968  43.308  1.00  0.00     0.169 HD
BRANCH  26  29
HETATM   29  C4  UNL     1      36.632  25.616  42.210  1.00  0.00     0.038 A 
HETATM   30  C3  UNL     1      37.841  26.098  42.593  1.00  0.00    -0.046 A 
HETATM   31  C2  UNL     1      38.890  25.240  42.932  1.00  0.00     0.007 A 
HETATM   32  C7  UNL     1      38.115  27.542  42.740  1.00  0.00     0.049 C 
HETATM   33  C1  UNL     1      38.713  23.882  42.882  1.00  0.00     0.001 A 
HETATM   34  C6  UNL     1      37.482  23.413  42.494  1.00  0.00     0.001 A 
HETATM   35  C5  UNL     1      36.440  24.226  42.157  1.00  0.00     0.017 A 
ENDBRANCH  26  29
ENDBRANCH   1  25
TORSDOF 4
