REMARK  3 active torsions:
REMARK  status: ('A' for Active; 'I' for Inactive)
REMARK    1  A    between atoms: C6_6  and  N1_11 
REMARK    2  A    between atoms: N2_14  and  C13_18 
REMARK    3  A    between atoms: C13_18  and  C14_19 
ROOT
HETATM    1  N1  UNL     1      30.657  27.539  39.524  1.00  0.00    -0.227 N 
HETATM    2  S1  UNL     1      30.527  25.883  39.126  1.00  0.00     0.060 SA
HETATM    3  C11 UNL     1      31.383  25.402  40.580  1.00  0.00     0.311 A 
HETATM    4  N2  UNL     1      31.672  26.518  41.309  1.00  0.00    -0.254 N 
HETATM    5  C12 UNL     1      31.231  27.727  40.791  1.00  0.00     0.343 A 
HETATM    6  O1  UNL     1      31.636  24.240  40.855  1.00  0.00    -0.258 OA
HETATM    7  O2  UNL     1      31.310  28.785  41.409  1.00  0.00    -0.245 OA
ENDROOT
BRANCH   1   8
HETATM    8  C6  UNL     1      30.074  28.564  38.726  1.00  0.00     0.062 A 
HETATM    9  C1  UNL     1      30.753  28.968  37.560  1.00  0.00     0.031 A 
HETATM   10  C2  UNL     1      30.206  29.912  36.697  1.00  0.00     0.003 A 
HETATM   11  C3  UNL     1      28.974  30.482  36.990  1.00  0.00     0.012 A 
HETATM   12  C4  UNL     1      28.286  30.145  38.162  1.00  0.00    -0.024 A 
HETATM   13  C5  UNL     1      28.831  29.191  39.065  1.00  0.00     0.002 A 
HETATM   14  C7  UNL     1      27.064  30.779  38.444  1.00  0.00     0.012 A 
HETATM   15  C10 UNL     1      28.116  28.988  40.274  1.00  0.00     0.014 A 
HETATM   16  C9  UNL     1      26.904  29.630  40.545  1.00  0.00     0.001 A 
HETATM   17  C8  UNL     1      26.373  30.519  39.625  1.00  0.00     0.001 A 
ENDBRANCH   1   8
BRANCH   4  18
HETATM   18  C13 UNL     1      32.374  26.440  42.570  1.00  0.00     0.176 C 
BRANCH  18  19
HETATM   19  C14 UNL     1      33.857  26.244  42.358  1.00  0.00    -0.040 A 
HETATM   20  C15 UNL     1      34.471  26.684  41.175  1.00  0.00     0.009 A 
HETATM   21  C16 UNL     1      35.847  26.529  40.994  1.00  0.00     0.001 A 
HETATM   22  C17 UNL     1      36.621  25.942  41.993  1.00  0.00     0.000 A 
HETATM   23  C18 UNL     1      36.023  25.512  43.175  1.00  0.00     0.001 A 
HETATM   24  C19 UNL     1      34.649  25.665  43.360  1.00  0.00     0.009 A 
ENDBRANCH  18  19
ENDBRANCH   4  18
TORSDOF 3
