REMARK  14 active torsions:
REMARK  status: ('A' for Active; 'I' for Inactive)
REMARK    1  A    between atoms: C4_4  and  C7_7 
REMARK    2  A    between atoms: C7_7  and  S1_8 
REMARK    3  A    between atoms: S1_8  and  C8_9 
REMARK    4  A    between atoms: C8_9  and  C9_10 
REMARK    5  A    between atoms: C9_10  and  C10_11 
REMARK    6  A    between atoms: C10_11  and  C11_12 
REMARK    7  A    between atoms: C10_11  and  S2_18 
REMARK    8  A    between atoms: C11_12  and  C12_13 
REMARK    9  A    between atoms: C12_13  and  C13_14 
REMARK   10  A    between atoms: C13_14  and  C14_15 
REMARK   11  A    between atoms: C14_15  and  C15_16 
REMARK   12  A    between atoms: C15_16  and  O1_17 
REMARK   13  A    between atoms: S2_18  and  C16_19 
REMARK   14  A    between atoms: C16_19  and  C17_20 
ROOT
HETATM    1  C10 UNL     1      30.696  27.798  38.899  1.00  0.00     0.048 C 
ENDROOT
BRANCH   1   2
HETATM    2  C9  UNL     1      31.521  27.319  40.118  1.00  0.00     0.025 C 
BRANCH   2   3
HETATM    3  C8  UNL     1      30.693  26.433  41.052  1.00  0.00     0.075 C 
BRANCH   3   4
HETATM    4  S1  UNL     1      31.590  25.995  42.576  1.00  0.00    -0.164 SA
BRANCH   4   5
HETATM    5  C7  UNL     1      32.743  27.403  42.668  1.00  0.00     0.112 C 
BRANCH   5   6
HETATM    6  C4  UNL     1      34.178  26.945  42.591  1.00  0.00    -0.049 A 
HETATM    7  C3  UNL     1      34.761  26.634  41.353  1.00  0.00     0.008 A 
HETATM    8  C2  UNL     1      36.091  26.215  41.283  1.00  0.00     0.001 A 
HETATM    9  C1  UNL     1      36.853  26.111  42.445  1.00  0.00     0.000 A 
HETATM   10  C6  UNL     1      36.288  26.427  43.678  1.00  0.00     0.001 A 
HETATM   11  C5  UNL     1      34.958  26.846  43.752  1.00  0.00     0.008 A 
ENDBRANCH   5   6
ENDBRANCH   4   5
ENDBRANCH   3   4
ENDBRANCH   2   3
ENDBRANCH   1   2
BRANCH   1  12
HETATM   12  C11 UNL     1      29.234  28.133  39.258  1.00  0.00     0.015 C 
BRANCH  12  13
HETATM   13  C12 UNL     1      28.700  29.461  38.706  1.00  0.00     0.002 C 
BRANCH  13  14
HETATM   14  C13 UNL     1      29.762  30.272  37.955  1.00  0.00     0.010 C 
BRANCH  14  15
HETATM   15  C14 UNL     1      29.407  31.757  37.872  1.00  0.00     0.110 C 
BRANCH  15  16
HETATM   16  C15 UNL     1      29.921  32.546  39.047  1.00  0.00     0.139 C 
HETATM   17  O2  UNL     1      29.548  32.477  40.205  1.00  0.00    -0.650 OA
BRANCH  16  18
HETATM   18  O1  UNL     1      30.879  33.421  38.684  1.00  0.00    -0.776 OA
HETATM   19  H21 UNL     1      30.458  34.299  38.799  1.00  0.00     0.167 HD
ENDBRANCH  16  18
ENDBRANCH  15  16
ENDBRANCH  14  15
ENDBRANCH  13  14
ENDBRANCH  12  13
ENDBRANCH   1  12
BRANCH   1  20
HETATM   20  S2  UNL     1      30.713  26.439  37.643  1.00  0.00    -0.160 SA
BRANCH  20  21
HETATM   21  C16 UNL     1      31.415  27.292  36.190  1.00  0.00     0.112 C 
BRANCH  21  22
HETATM   22  C17 UNL     1      30.486  27.363  35.005  1.00  0.00    -0.049 A 
HETATM   23  C18 UNL     1      30.083  28.607  34.493  1.00  0.00     0.008 A 
HETATM   24  C19 UNL     1      29.228  28.677  33.392  1.00  0.00     0.001 A 
HETATM   25  C20 UNL     1      28.761  27.508  32.795  1.00  0.00     0.000 A 
HETATM   26  C21 UNL     1      29.146  26.267  33.299  1.00  0.00     0.001 A 
HETATM   27  C22 UNL     1      30.001  26.194  34.400  1.00  0.00     0.008 A 
ENDBRANCH  21  22
ENDBRANCH  20  21
ENDBRANCH   1  20
TORSDOF 14
