REMARK  16 active torsions:
REMARK  status: ('A' for Active; 'I' for Inactive)
REMARK    1  A    between atoms: C1_1  and  C2_2 
REMARK    2  A    between atoms: C1_1  and  C21_22 
REMARK    3  A    between atoms: C2_2  and  C3_3 
REMARK    4  A    between atoms: C3_3  and  C4_4 
REMARK    5  A    between atoms: C3_3  and  O1_21 
REMARK    6  A    between atoms: C4_4  and  C5_5 
REMARK    7  A    between atoms: C5_5  and  C6_6 
REMARK    8  A    between atoms: C6_6  and  C7_7 
REMARK    9  A    between atoms: C7_7  and  C8_8 
REMARK   10  A    between atoms: C8_8  and  C9_9 
REMARK   11  A    between atoms: C9_9  and  C10_10 
REMARK   12  A    between atoms: C10_10  and  C11_11 
REMARK   13  A    between atoms: C11_11  and  C12_12 
REMARK   14  A    between atoms: C12_12  and  C13_13 
REMARK   15  A    between atoms: C13_13  and  C14_14 
REMARK   16  A    between atoms: C14_14  and  C15_15 
ROOT
HETATM    1  C3  UNL     1      29.018  30.046  40.176  1.00  0.00     0.054 C 
HETATM    2  C20 UNL     1      28.441  30.825  41.374  1.00  0.00     0.045 C 
ENDROOT
BRANCH   1   3
HETATM    3  C2  UNL     1      28.343  30.547  38.876  1.00  0.00     0.042 C 
BRANCH   3   4
HETATM    4  C1  UNL     1      29.269  31.225  37.853  1.00  0.00     0.046 C 
BRANCH   4   5
HETATM    5  C21 UNL     1      29.229  30.515  36.513  1.00  0.00     0.002 A 
HETATM    6  C22 UNL     1      28.345  30.765  35.531  1.00  0.00    -0.001 A 
HETATM    7  C23 UNL     1      27.275  31.820  35.566  1.00  0.00     0.053 C 
HETATM    8  C24 UNL     1      28.377  29.983  34.263  1.00  0.00     0.185 A 
HETATM    9  O2  UNL     1      27.591  30.239  33.354  1.00  0.00    -0.287 OA
HETATM   10  C25 UNL     1      29.376  28.887  34.116  1.00  0.00    -0.002 A 
HETATM   11  C26 UNL     1      29.258  28.131  32.821  1.00  0.00     0.053 C 
HETATM   12  C27 UNL     1      30.271  28.645  35.091  1.00  0.00    -0.002 A 
HETATM   13  C28 UNL     1      31.350  27.598  35.054  1.00  0.00     0.053 C 
HETATM   14  C29 UNL     1      30.266  29.455  36.342  1.00  0.00     0.185 A 
HETATM   15  O3  UNL     1      31.107  29.255  37.217  1.00  0.00    -0.287 OA
ENDBRANCH   4   5
ENDBRANCH   3   4
ENDBRANCH   1   3
BRANCH   1  16
HETATM   16  C4  UNL     1      28.812  28.538  40.457  1.00  0.00     0.037 C 
BRANCH  16  17
HETATM   17  C5  UNL     1      29.342  27.581  39.391  1.00  0.00     0.003 C 
BRANCH  17  18
HETATM   18  C6  UNL     1      30.803  27.144  39.582  1.00  0.00     0.004 C 
BRANCH  18  19
HETATM   19  C7  UNL     1      31.214  25.697  39.221  1.00  0.00    -0.019 C 
HETATM   20  C19 UNL     1      30.363  25.110  38.090  1.00  0.00     0.010 C 
BRANCH  19  21
HETATM   21  C8  UNL     1      31.291  24.776  40.453  1.00  0.00     0.004 C 
BRANCH  21  22
HETATM   22  C9  UNL     1      31.172  25.469  41.819  1.00  0.00     0.001 C 
BRANCH  22  23
HETATM   23  C10 UNL     1      32.506  25.599  42.563  1.00  0.00     0.004 C 
BRANCH  23  24
HETATM   24  C11 UNL     1      32.855  27.028  43.039  1.00  0.00    -0.019 C 
HETATM   25  C18 UNL     1      31.637  27.954  42.958  1.00  0.00     0.010 C 
BRANCH  24  26
HETATM   26  C12 UNL     1      34.072  27.600  42.285  1.00  0.00     0.004 C 
BRANCH  26  27
HETATM   27  C13 UNL     1      34.450  26.789  41.038  1.00  0.00     0.001 C 
BRANCH  27  28
HETATM   28  C14 UNL     1      35.905  26.314  41.110  1.00  0.00     0.004 C 
BRANCH  28  29
HETATM   29  C15 UNL     1      36.487  26.182  42.530  1.00  0.00    -0.023 C 
HETATM   30  C16 UNL     1      36.730  24.725  42.927  1.00  0.00     0.009 C 
HETATM   31  C17 UNL     1      37.760  27.007  42.720  1.00  0.00     0.009 C 
ENDBRANCH  28  29
ENDBRANCH  27  28
ENDBRANCH  26  27
ENDBRANCH  24  26
ENDBRANCH  23  24
ENDBRANCH  22  23
ENDBRANCH  21  22
ENDBRANCH  19  21
ENDBRANCH  18  19
ENDBRANCH  17  18
ENDBRANCH  16  17
ENDBRANCH   1  16
BRANCH   1  32
HETATM   32  O1  UNL     1      30.422  30.307  40.141  1.00  0.00    -0.390 OA
HETATM   33  H41 UNL     1      30.571  31.069  39.552  1.00  0.00     0.210 HD
ENDBRANCH   1  32
TORSDOF 16
