REMARK  UMBRALISIB
REMARK  7 active torsions:
REMARK  status: ('A' for Active; 'I' for Inactive)
REMARK    1  A    between atoms: O_6  and  C_36 
REMARK    2  A    between atoms: O_6  and  C_40 
REMARK    3  A    between atoms: N_7  and  C_12 
REMARK    4  A    between atoms: N_11  and  C_24 
REMARK    5  A    between atoms: C_12  and  C_13 
REMARK    6  A    between atoms: C_15  and  C_23 
REMARK    7  A    between atoms: C_18  and  C_22 
ROOT
ATOM      1  F           0      -2.467   6.514  -0.962  0.00  0.00    -0.204 F 
ATOM      2  O           0      -1.384   1.482   0.962  0.00  0.00    -0.309 OA
ATOM      3  O           0      -4.775   2.006  -1.224  0.00  0.00    -0.286 OA
ATOM      4  C           0      -2.239   0.416   0.713  0.00  0.00     0.103 A 
ATOM      5  C           0      -3.381   0.515  -0.002  0.00  0.00     0.060 A 
ATOM      6  C           0      -3.755   1.844  -0.566  0.00  0.00     0.199 A 
ATOM      7  C           0      -2.839   2.958  -0.292  0.00  0.00     0.064 A 
ATOM      8  C           0      -1.696   2.717   0.462  0.00  0.00     0.103 A 
ATOM      9  C           0      -3.106   4.241  -0.777  0.00  0.00     0.035 A 
ATOM     10  C           0      -0.808   3.758   0.737  0.00  0.00     0.027 A 
ATOM     11  C           0      -2.217   5.281  -0.502  0.00  0.00     0.140 A 
ATOM     12  C           0      -1.070   5.041   0.255  0.00  0.00     0.032 A 
ENDROOT
BRANCH   5  13
ATOM     13  C           0      -4.249  -0.630  -0.239  0.00  0.00     0.007 A 
ATOM     14  C           0      -5.278  -0.922   0.658  0.00  0.00     0.030 A 
ATOM     15  C           0      -6.110  -2.019   0.431  0.00  0.00     0.140 A 
ATOM     16  F           0      -7.096  -2.299   1.293  0.00  0.00    -0.204 F 
ATOM     17  C           0      -5.914  -2.823  -0.692  0.00  0.00     0.030 A 
ATOM     18  C           0      -4.886  -2.531  -1.588  0.00  0.00     0.002 A 
ATOM     19  C           0      -4.054  -1.434  -1.362  0.00  0.00     0.000 A 
ENDBRANCH   5  13
BRANCH   4  20
ATOM     20  C           0      -1.732  -0.851   1.343  0.00  0.00     0.152 C 
ATOM     21  C           0      -1.702  -0.737   2.869  0.00  0.00     0.034 C 
BRANCH  20  22
ATOM     22  N           0      -0.383  -1.253   0.781  0.00  0.00    -0.230 N 
ATOM     23  N           0       0.677  -0.441   0.954  0.00  0.00    -0.168 NA
ATOM     24  C           0       1.671  -1.093   0.341  0.00  0.00     0.107 A 
ATOM     25  C           0       1.255  -2.315  -0.221  0.00  0.00     0.088 A 
ATOM     26  C           0      -0.092  -2.389   0.085  0.00  0.00     0.166 A 
ATOM     27  C           0       1.800  -3.373  -0.940  0.00  0.00     0.140 A 
ATOM     28  N           0      -0.941  -3.377  -0.238  0.00  0.00    -0.205 NA
ATOM     29  C           0      -0.302  -4.344  -0.932  0.00  0.00     0.202 A 
ATOM     30  N           0       1.000  -4.405  -1.300  0.00  0.00    -0.207 NA
BRANCH  24  31
ATOM     31  C           0       2.993  -0.519   0.312  0.00  0.00     0.022 A 
ATOM     32  C           0       3.901  -0.807   1.331  0.00  0.00     0.033 A 
ATOM     33  C           0       5.180  -0.251   1.303  0.00  0.00     0.162 A 
ATOM     34  F           0       6.048  -0.531   2.285  0.00  0.00    -0.202 F 
ATOM     35  C           0       5.550   0.594   0.256  0.00  0.00     0.121 A 
ATOM     36  C           0       4.642   0.882  -0.762  0.00  0.00     0.026 A 
ATOM     37  C           0       3.363   0.326  -0.734  0.00  0.00     0.004 A 
BRANCH  35  38
ATOM     38  O           0       6.799   1.136   0.227  0.00  0.00    -0.331 OA
BRANCH  38  39
ATOM     39  C           0       7.615   0.824  -0.900  0.00  0.00     0.122 C 
ATOM     40  C           0       8.862   0.092  -0.428  0.00  0.00     0.033 C 
ATOM     41  C           0       7.958   2.107  -1.641  0.00  0.00     0.033 C 
ENDBRANCH  38  39
ENDBRANCH  35  38
ENDBRANCH  24  31
BRANCH  27  42
ATOM     42  N           0       3.160  -3.390  -1.298  0.00  0.00    -0.383 N 
ATOM     43  H           0       3.780  -2.636  -1.044  0.00  0.00     0.157 HD
ATOM     44  H           0       3.515  -4.180  -1.821  0.00  0.00     0.157 HD
ENDBRANCH  27  42
ENDBRANCH  20  22
ENDBRANCH   4  20
TORSDOF 7
