REMARK  DUVELISIB
REMARK  4 active torsions:
REMARK  status: ('A' for Active; 'I' for Inactive)
REMARK    1  A    between atoms: N_3  and  C_16 
REMARK    2  A    between atoms: N_4  and  C_9 
REMARK    3  A    between atoms: N_4  and  C_17 
REMARK    4  A    between atoms: C_9  and  C_10 
ROOT
ATOM      1 Cl           0      -4.724  -0.533   2.293  0.00  0.00    -0.082 Cl
ATOM      2  O           0      -2.900   1.137   1.297  0.00  0.00    -0.267 OA
ATOM      3  N           0      -1.230   0.842  -0.340  0.00  0.00    -0.277 N 
ATOM      4  C           0      -0.652  -0.032  -1.280  0.00  0.00     0.064 A 
ATOM      5  C           0      -1.121  -1.280  -1.456  0.00  0.00     0.015 A 
ATOM      6  C           0      -2.245  -1.776  -0.678  0.00  0.00     0.007 A 
ATOM      7  C           0      -2.828  -0.954   0.286  0.00  0.00     0.067 A 
ATOM      8  C           0      -2.318   0.427   0.477  0.00  0.00     0.265 A 
ATOM      9  C           0      -2.735  -3.074  -0.869  0.00  0.00     0.000 A 
ATOM     10  C           0      -3.899  -1.425   1.057  0.00  0.00     0.062 A 
ATOM     11  C           0      -3.802  -3.542  -0.102  0.00  0.00     0.001 A 
ATOM     12  C           0      -4.382  -2.719   0.860  0.00  0.00     0.012 A 
ENDROOT
BRANCH   3  13
ATOM     13  C           0      -0.777   2.199  -0.160  0.00  0.00     0.067 A 
ATOM     14  C           0      -0.307   2.618   1.085  0.00  0.00     0.018 A 
ATOM     15  C           0       0.131   3.931   1.260  0.00  0.00     0.002 A 
ATOM     16  C           0       0.099   4.825   0.189  0.00  0.00     0.000 A 
ATOM     17  C           0      -0.371   4.406  -1.055  0.00  0.00     0.002 A 
ATOM     18  C           0      -0.809   3.093  -1.230  0.00  0.00     0.018 A 
ENDBRANCH   3  13
BRANCH   4  19
ATOM     19  C           0       0.590   0.369  -2.037  0.00  0.00     0.118 C 
ATOM     20  C           0       0.390   0.252  -3.536  0.00  0.00     0.030 C 
BRANCH  19  21
ATOM     21  N           0       1.665  -0.492  -1.615  0.00  0.00    -0.354 N 
ATOM     22  H           0       1.921  -1.275  -2.206  0.00  0.00     0.162 HD
BRANCH  21  23
ATOM     23  C           0       2.349  -0.344  -0.416  0.00  0.00     0.158 A 
ATOM     24  N           0       2.030   0.648   0.445  0.00  0.00    -0.206 NA
ATOM     25  C           0       2.742   0.729   1.595  0.00  0.00     0.202 A 
ATOM     26  N           0       3.753  -0.058   2.022  0.00  0.00    -0.203 NA
ATOM     27  C           0       4.049  -1.042   1.139  0.00  0.00     0.184 A 
ATOM     28  N           0       5.023  -1.996   1.288  0.00  0.00    -0.205 NA
ATOM     29  C           0       3.373  -1.200  -0.063  0.00  0.00     0.128 A 
ATOM     30  C           0       4.944  -2.726   0.195  0.00  0.00     0.177 A 
ATOM     31  N           0       3.961  -2.283  -0.651  0.00  0.00    -0.332 N 
ATOM     32  H           0       3.719  -2.687  -1.546  0.00  0.00     0.168 HD
ENDBRANCH  21  23
ENDBRANCH  19  21
ENDBRANCH   4  19
TORSDOF 4
