REMARK  FOSTAMATINIB
REMARK  12 active torsions:
REMARK  status: ('A' for Active; 'I' for Inactive)
REMARK    1  A    between atoms: P_1  and  O_5 
REMARK    2  A    between atoms: P_1  and  O_6 
REMARK    3  A    between atoms: P_1  and  O_7 
REMARK    4  A    between atoms: O_5  and  C_24 
REMARK    5  A    between atoms: O_9  and  C_34 
REMARK    6  A    between atoms: O_10  and  C_35 
REMARK    7  A    between atoms: O_11  and  C_36 
REMARK    8  A    between atoms: N_12  and  C_24 
REMARK    9  A    between atoms: N_14  and  C_26 
REMARK   10  A    between atoms: N_14  and  C_28 
REMARK   11  A    between atoms: N_16  and  C_30 
REMARK   12  A    between atoms: N_16  and  C_31 
ROOT
ATOM      1  P           0      -0.654   0.905  -3.293  0.00  0.00     0.393 P 
ATOM      2  O           0      -0.571   0.571  -4.754  0.00  0.00    -0.631 OA
ENDROOT
BRANCH   1   3
ATOM      3  O           0       0.740   0.817  -2.478  0.00  0.00    -0.254 OA
BRANCH   3   4
ATOM      4  C           0       0.732   1.120  -1.095  0.00  0.00     0.269 C 
BRANCH   4   5
ATOM      5  N           0       2.086   0.976  -0.572  0.00  0.00    -0.254 N 
ATOM      6  C           0       2.985   2.036  -0.615  0.00  0.00     0.265 C 
ATOM      7  O           0       2.753   3.119  -1.154  0.00  0.00    -0.269 OA
ATOM      8  C           0       4.285   1.797   0.170  0.00  0.00     0.169 C 
ATOM      9  O           0       4.765   0.458   0.172  0.00  0.00    -0.324 OA
ATOM     10  C           0       5.408   2.638  -0.451  0.00  0.00     0.040 C 
ATOM     11  C           0       4.072   2.251   1.623  0.00  0.00     0.040 C 
ATOM     12  C           0       3.803  -0.500   0.268  0.00  0.00     0.129 A 
ATOM     13  C           0       2.473  -0.296  -0.073  0.00  0.00     0.172 A 
ATOM     14  C           0       4.208  -1.764   0.693  0.00  0.00     0.030 A 
ATOM     15  N           0       1.554  -1.292   0.010  0.00  0.00    -0.209 NA
ATOM     16  C           0       1.972  -2.503   0.442  0.00  0.00     0.143 A 
ATOM     17  C           0       3.278  -2.789   0.790  0.00  0.00     0.039 A 
BRANCH  16  18
ATOM     18  N           0       1.025  -3.550   0.553  0.00  0.00    -0.322 N 
ATOM     19  H           0       1.422  -4.436   0.856  0.00  0.00     0.169 HD
BRANCH  18  20
ATOM     20  C           0      -0.353  -3.613   0.292  0.00  0.00     0.190 A 
ATOM     21  N           0      -1.094  -2.496   0.445  0.00  0.00    -0.042 NA
ATOM     22  C           0      -2.405  -2.641   0.174  0.00  0.00     0.729 A 
ATOM     23  N           0      -3.029  -3.766  -0.223  0.00  0.00    -0.057 NA
ATOM     24  C           0      -2.230  -4.845  -0.355  0.00  0.00     0.151 A 
ATOM     25  C           0      -0.872  -4.827  -0.109  0.00  0.00     0.194 A 
ATOM     26  F           0      -0.120  -5.924  -0.254  0.00  0.00    -0.199 F 
BRANCH  22  27
ATOM     27  N           0      -3.211  -1.491   0.322  0.00  0.00    -0.186 N 
ATOM     28  H           0      -4.155  -1.633  -0.025  0.00  0.00     0.184 HD
BRANCH  27  29
ATOM     29  C           0      -2.922  -0.169   0.709  0.00  0.00     0.077 A 
ATOM     30  C           0      -3.683   0.886   0.206  0.00  0.00     0.044 A 
ATOM     31  C           0      -3.396   2.197   0.589  0.00  0.00     0.120 A 
ATOM     32  C           0      -2.349   2.451   1.475  0.00  0.00     0.139 A 
ATOM     33  C           0      -1.589   1.396   1.977  0.00  0.00     0.120 A 
ATOM     34  C           0      -1.875   0.085   1.594  0.00  0.00     0.044 A 
BRANCH  31  35
ATOM     35  O           0      -4.146   3.219   0.090  0.00  0.00    -0.326 OA
ATOM     36  C           0      -5.197   2.872  -0.809  0.00  0.00     0.181 C 
ENDBRANCH  31  35
BRANCH  32  37
ATOM     37  O           0      -2.068   3.732   1.848  0.00  0.00    -0.324 OA
ATOM     38  C           0      -1.134   4.450   1.044  0.00  0.00     0.182 C 
ENDBRANCH  32  37
BRANCH  33  39
ATOM     39  O           0      -0.563   1.631   2.842  0.00  0.00    -0.326 OA
ATOM     40  C           0       0.165   0.496   3.309  0.00  0.00     0.181 C 
ENDBRANCH  33  39
ENDBRANCH  27  29
ENDBRANCH  22  27
ENDBRANCH  18  20
ENDBRANCH  16  18
ENDBRANCH   4   5
ENDBRANCH   3   4
ENDBRANCH   1   3
BRANCH   1  41
ATOM     41  O           0      -1.184   2.396  -2.963  0.00  0.00    -0.307 OA
ATOM     42  H           0      -1.992   2.724  -3.412  0.00  0.00     0.222 HD
ENDBRANCH   1  41
BRANCH   1  43
ATOM     43  O           0      -1.657  -0.036  -2.441  0.00  0.00    -0.307 OA
ATOM     44  H           0      -2.562  -0.197  -2.782  0.00  0.00     0.222 HD
ENDBRANCH   1  43
TORSDOF 12
