REMARK  CAFEINA
REMARK  0 active torsions:
REMARK  status: ('A' for Active; 'I' for Inactive)
ROOT
ATOM      1  O           0       0.470   2.569   0.001  0.00  0.00    -0.265 OA
ATOM      2  O           0      -3.127  -0.444  -0.000  0.00  0.00    -0.246 OA
ATOM      3  N           0      -0.969  -1.312   0.000  0.00  0.00    -0.263 N 
ATOM      4  N           0       2.218   0.141  -0.000  0.00  0.00    -0.302 N 
ATOM      5  N           0      -1.348   1.080  -0.000  0.00  0.00    -0.246 N 
ATOM      6  N           0       1.412  -1.937   0.000  0.00  0.00    -0.206 NA
ATOM      7  C           0       0.858   0.259  -0.001  0.00  0.00     0.153 A 
ATOM      8  C           0       0.390  -1.026  -0.000  0.00  0.00     0.170 A 
ATOM      9  C           0       0.031   1.422  -0.001  0.00  0.00     0.283 A 
ATOM     10  C           0      -1.906  -0.250  -0.000  0.00  0.00     0.335 A 
ATOM     11  C           0       2.503  -1.200   0.000  0.00  0.00     0.180 A 
ATOM     12  C           0      -1.428  -2.696   0.001  0.00  0.00     0.137 C 
ATOM     13  C           0       3.193   1.206   0.000  0.00  0.00     0.132 C 
ATOM     14  C           0      -2.297   2.188   0.001  0.00  0.00     0.139 C 
ENDROOT
TORSDOF 0
