REMARK  IDELALISIB
REMARK  5 active torsions:
REMARK  status: ('A' for Active; 'I' for Inactive)
REMARK    1  A    between atoms: N_3  and  C_17 
REMARK    2  A    between atoms: N_4  and  C_10 
REMARK    3  A    between atoms: N_4  and  C_18 
REMARK    4  A    between atoms: C_10  and  C_11 
REMARK    5  A    between atoms: C_10  and  C_12 
ROOT
ATOM      1  F           0       5.517  -0.350  -1.168  0.00  0.00    -0.204 F 
ATOM      2  O           0       3.653   1.328  -0.996  0.00  0.00    -0.266 OA
ATOM      3  N           0       1.577   0.787  -0.023  0.00  0.00    -0.261 N 
ATOM      4  N           0       1.206  -1.441   0.727  0.00  0.00    -0.230 NA
ATOM      5  C           0       0.808  -0.215   0.574  0.00  0.00     0.147 A 
ATOM      6  C           0       2.899   0.529  -0.445  0.00  0.00     0.269 A 
ATOM      7  C           0       3.370  -0.858  -0.248  0.00  0.00     0.102 A 
ATOM      8  C           0       2.493  -1.790   0.307  0.00  0.00     0.089 A 
ATOM      9  C           0       4.662  -1.234  -0.635  0.00  0.00     0.146 A 
ATOM     10  C           0       2.925  -3.111   0.473  0.00  0.00     0.019 A 
ATOM     11  C           0       5.080  -2.553  -0.463  0.00  0.00     0.030 A 
ATOM     12  C           0       4.212  -3.491   0.089  0.00  0.00     0.004 A 
ENDROOT
BRANCH   3  13
ATOM     13  C           0       1.054   2.101  -0.278  0.00  0.00     0.068 A 
ATOM     14  C           0       0.391   2.356  -1.472  0.00  0.00     0.018 A 
ATOM     15  C           0      -0.117   3.631  -1.719  0.00  0.00     0.002 A 
ATOM     16  C           0       0.043   4.641  -0.770  0.00  0.00     0.000 A 
ATOM     17  C           0       0.710   4.376   0.425  0.00  0.00     0.002 A 
ATOM     18  C           0       1.218   3.101   0.672  0.00  0.00     0.018 A 
ENDBRANCH   3  13
BRANCH   5  19
ATOM     19  C           0      -0.556   0.111   1.147  0.00  0.00     0.137 C 
BRANCH  19  20
ATOM     20  N           0      -1.507  -0.714   0.449  0.00  0.00    -0.353 N 
ATOM     21  H           0      -1.197  -1.605   0.076  0.00  0.00     0.162 HD
BRANCH  20  22
ATOM     22  C           0      -2.853  -0.402   0.319  0.00  0.00     0.158 A 
ATOM     23  N           0      -3.374   0.733   0.859  0.00  0.00    -0.206 NA
ATOM     24  C           0      -4.697   0.969   0.690  0.00  0.00     0.202 A 
ATOM     25  N           0      -5.615   0.219   0.043  0.00  0.00    -0.203 NA
ATOM     26  C           0      -5.081  -0.907  -0.488  0.00  0.00     0.184 A 
ATOM     27  N           0      -5.755  -1.865  -1.200  0.00  0.00    -0.205 NA
ATOM     28  C           0      -3.736  -1.229  -0.365  0.00  0.00     0.128 A 
ATOM     29  C           0      -4.839  -2.758  -1.508  0.00  0.00     0.177 A 
ATOM     30  N           0      -3.603  -2.417  -1.025  0.00  0.00    -0.332 N 
ATOM     31  H           0      -2.751  -2.951  -1.138  0.00  0.00     0.168 HD
ENDBRANCH  20  22
ENDBRANCH  19  20
BRANCH  19  32
ATOM     32  C           0      -0.567  -0.180   2.641  0.00  0.00     0.030 C 
ATOM     33  C           0       0.482   0.632   3.388  0.00  0.00     0.003 C 
ENDBRANCH  19  32
ENDBRANCH   5  19
TORSDOF 5
