REMARK  6 active torsions:
REMARK  status: ('A' for Active; 'I' for Inactive)
REMARK    1  A    between atoms: C7_7  and  C14_15 
REMARK    2  A    between atoms: N1_9  and  C9_10 
REMARK    3  A    between atoms: C9_10  and  C10_11 
REMARK    4  A    between atoms: C10_11  and  C11_12 
REMARK    5  A    between atoms: C11_12  and  C12_13 
REMARK    6  A    between atoms: C14_15  and  C15_16 
ROOT
HETATM    1  C1  UNL     1      30.501  29.606  39.979  1.00  0.00     0.015 A 
HETATM    2  C2  UNL     1      30.842  28.567  39.083  1.00  0.00     0.006 A 
HETATM    3  C3  UNL     1      30.731  28.828  37.709  1.00  0.00     0.045 A 
HETATM    4  C4  UNL     1      30.321  30.076  37.212  1.00  0.00     0.030 A 
HETATM    5  C5  UNL     1      30.006  31.084  38.126  1.00  0.00     0.002 A 
HETATM    6  C6  UNL     1      30.091  30.853  39.493  1.00  0.00     0.001 A 
HETATM    7  C7  UNL     1      31.290  27.208  39.229  1.00  0.00     0.043 A 
HETATM    8  C8  UNL     1      31.398  26.692  37.949  1.00  0.00     0.107 A 
HETATM    9  N1  UNL     1      31.074  27.668  37.049  1.00  0.00    -0.355 N 
ENDROOT
BRANCH   7  10
HETATM   10  C14 UNL     1      31.584  26.411  40.419  1.00  0.00     0.195 C 
HETATM   11  O1  UNL     1      31.396  25.197  40.468  1.00  0.00    -0.287 OA
BRANCH  10  12
HETATM   12  C15 UNL     1      32.172  27.075  41.600  1.00  0.00     0.026 A 
HETATM   13  C16 UNL     1      31.288  27.670  42.513  1.00  0.00     0.016 A 
HETATM   14  C17 UNL     1      31.788  28.312  43.639  1.00  0.00     0.002 A 
HETATM   15  C18 UNL     1      33.166  28.363  43.850  1.00  0.00     0.012 A 
HETATM   16  C19 UNL     1      34.066  27.781  42.941  1.00  0.00    -0.025 A 
HETATM   17  C20 UNL     1      33.577  27.128  41.785  1.00  0.00    -0.012 A 
HETATM   18  C21 UNL     1      35.451  27.844  43.174  1.00  0.00     0.019 A 
HETATM   19  C24 UNL     1      34.517  26.560  40.896  1.00  0.00     0.014 A 
HETATM   20  C23 UNL     1      35.890  26.632  41.141  1.00  0.00     0.007 A 
HETATM   21  C22 UNL     1      36.368  27.263  42.290  1.00  0.00    -0.061 A 
HETATM   22  C25 UNL     1      37.843  27.374  42.540  1.00  0.00     0.048 C 
ENDBRANCH  10  12
ENDBRANCH   7  10
BRANCH   9  23
HETATM   23  C9  UNL     1      31.097  27.483  35.605  1.00  0.00     0.128 C 
BRANCH  23  24
HETATM   24  C10 UNL     1      30.388  26.198  35.178  1.00  0.00     0.020 C 
BRANCH  24  25
HETATM   25  C11 UNL     1      29.566  26.420  33.908  1.00  0.00     0.001 C 
BRANCH  25  26
HETATM   26  C12 UNL     1      29.663  27.846  33.364  1.00  0.00    -0.004 C 
HETATM   27  C13 UNL     1      28.319  28.441  32.973  1.00  0.00     0.005 C 
ENDBRANCH  25  26
ENDBRANCH  24  25
ENDBRANCH  23  24
ENDBRANCH   9  23
TORSDOF 6
