REMARK  17 active torsions:
REMARK  status: ('A' for Active; 'I' for Inactive)
REMARK    1  A    between atoms: C1_1  and  C2_2 
REMARK    2  A    between atoms: C1_1  and  O2_4 
REMARK    3  A    between atoms: C2_2  and  N1_5 
REMARK       I    between atoms: N1_5  and  C3_6 
REMARK    4  A    between atoms: C3_6  and  C4_7 
REMARK    5  A    between atoms: C4_7  and  N2_9 
REMARK       I    between atoms: N2_9  and  C5_10 
REMARK    6  A    between atoms: C5_10  and  C6_11 
REMARK    7  A    between atoms: C6_11  and  C7_13 
REMARK    8  A    between atoms: C7_13  and  C8_14 
REMARK    9  A    between atoms: C8_14  and  C9_15 
REMARK   10  A    between atoms: C9_15  and  C10_16 
REMARK   11  A    between atoms: C10_16  and  C11_17 
REMARK   12  A    between atoms: C11_17  and  C12_18 
REMARK       I    between atoms: C12_18  and  N3_19 
REMARK   13  A    between atoms: N3_19  and  C13_21 
REMARK   14  A    between atoms: C13_21  and  C14_22 
REMARK       I    between atoms: C14_22  and  N4_23 
REMARK   15  A    between atoms: N4_23  and  C15_25 
REMARK   16  A    between atoms: C15_25  and  C16_26 
REMARK   17  A    between atoms: C16_26  and  O7_27 
ROOT
HETATM    1  C8  UNL     1      30.428  26.008  35.074  1.00  0.00     0.000 C 
ENDROOT
BRANCH   1   2
HETATM    2  C7  UNL     1      29.757  26.734  33.906  1.00  0.00     0.009 C 
BRANCH   2   3
HETATM    3  C6  UNL     1      30.333  28.135  33.709  1.00  0.00     0.103 C 
BRANCH   3   4
HETATM    4  C5  UNL     1      29.250  29.180  33.520  1.00  0.00     0.217 C 
HETATM    5  N2  UNL     1      29.018  29.926  34.648  1.00  0.00    -0.352 N 
HETATM    6  H7  UNL     1      29.447  29.639  35.521  1.00  0.00     0.162 HD
HETATM    7  O4  UNL     1      28.587  29.304  32.493  1.00  0.00    -0.274 OA
BRANCH   5   8
HETATM    8  C4  UNL     1      27.979  30.947  34.725  1.00  0.00     0.225 C 
BRANCH   8   9
HETATM    9  C3  UNL     1      27.640  31.312  36.172  1.00  0.00     0.235 C 
HETATM   10  N1  UNL     1      28.707  31.738  36.927  1.00  0.00    -0.350 N 
HETATM   11  H4  UNL     1      29.593  31.902  36.461  1.00  0.00     0.163 HD
HETATM   12  O3  UNL     1      26.516  31.142  36.642  1.00  0.00    -0.272 OA
BRANCH  10  13
HETATM   13  C2  UNL     1      28.516  32.340  38.233  1.00  0.00     0.232 C 
BRANCH  13  14
HETATM   14  C1  UNL     1      29.820  32.317  39.017  1.00  0.00     0.158 C 
HETATM   15  O1  UNL     1      30.205  31.451  39.791  1.00  0.00    -0.649 OA
BRANCH  14  16
HETATM   16  O2  UNL     1      30.571  33.415  38.791  1.00  0.00    -0.775 OA
HETATM   17  H3  UNL     1      31.318  33.087  38.246  1.00  0.00     0.167 HD
ENDBRANCH  14  16
ENDBRANCH  13  14
ENDBRANCH  10  13
ENDBRANCH   8   9
ENDBRANCH   5   8
ENDBRANCH   3   4
ENDBRANCH   2   3
ENDBRANCH   1   2
BRANCH   1  18
HETATM   18  C9  UNL     1      30.916  27.005  36.127  1.00  0.00     0.000 C 
BRANCH  18  19
HETATM   19  C10 UNL     1      30.723  26.535  37.575  1.00  0.00     0.009 C 
BRANCH  19  20
HETATM   20  C11 UNL     1      30.580  25.022  37.749  1.00  0.00     0.103 C 
BRANCH  20  21
HETATM   21  C12 UNL     1      31.253  24.507  39.007  1.00  0.00     0.217 C 
HETATM   22  N3  UNL     1      31.498  25.486  39.945  1.00  0.00    -0.352 N 
HETATM   23  H20 UNL     1      30.973  26.349  39.868  1.00  0.00     0.162 HD
HETATM   24  O5  UNL     1      31.579  23.334  39.166  1.00  0.00    -0.274 OA
BRANCH  22  25
HETATM   25  C13 UNL     1      31.874  25.117  41.297  1.00  0.00     0.225 C 
BRANCH  25  26
HETATM   26  C14 UNL     1      32.882  26.147  41.817  1.00  0.00     0.235 C 
HETATM   27  N4  UNL     1      34.137  25.645  42.088  1.00  0.00    -0.350 N 
HETATM   28  H23 UNL     1      34.182  24.668  42.363  1.00  0.00     0.163 HD
HETATM   29  O6  UNL     1      32.594  27.337  41.944  1.00  0.00    -0.272 OA
BRANCH  27  30
HETATM   30  C15 UNL     1      35.153  26.519  42.660  1.00  0.00     0.232 C 
BRANCH  30  31
HETATM   31  C16 UNL     1      36.052  27.083  41.573  1.00  0.00     0.158 C 
HETATM   32  O8  UNL     1      36.959  27.885  41.739  1.00  0.00    -0.649 OA
BRANCH  31  33
HETATM   33  O7  UNL     1      35.768  26.575  40.356  1.00  0.00    -0.775 OA
HETATM   34  H26 UNL     1      35.032  25.923  40.509  1.00  0.00     0.167 HD
ENDBRANCH  31  33
ENDBRANCH  30  31
ENDBRANCH  27  30
ENDBRANCH  25  26
ENDBRANCH  22  25
ENDBRANCH  20  21
ENDBRANCH  19  20
ENDBRANCH  18  19
ENDBRANCH   1  18
TORSDOF 17
