REMARK  5 active torsions:
REMARK  status: ('A' for Active; 'I' for Inactive)
REMARK    1  A    between atoms: C3_4  and  C4_5 
REMARK    2  A    between atoms: C4_5  and  C5_7 
REMARK    3  A    between atoms: C4_5  and  C13_17 
REMARK    4  A    between atoms: C5_7  and  O3_8 
REMARK    5  A    between atoms: C9_13  and  C12_16 
ROOT
HETATM    1  C1  UNL     1      28.462  31.849  39.452  1.00  0.00     0.273 C 
HETATM    2  C2  UNL     1      26.850  30.287  38.515  1.00  0.00     0.273 C 
HETATM    3  O1  UNL     1      31.332  28.209  40.360  1.00  0.00    -0.315 OA
HETATM    4  C3  UNL     1      32.077  27.821  41.440  1.00  0.00     0.270 A 
HETATM    5  O2  UNL     1      32.300  28.538  42.405  1.00  0.00    -0.264 OA
HETATM    6  C6  UNL     1      29.319  29.688  38.304  1.00  0.00     0.192 C 
HETATM    7  N1  UNL     1      28.243  30.360  39.180  1.00  0.00    -0.066 N 
HETATM    8  C7  UNL     1      30.714  29.989  38.873  1.00  0.00     0.066 C 
HETATM    9  C8  UNL     1      28.980  28.195  38.431  1.00  0.00     0.035 C 
HETATM   10  C9  UNL     1      28.315  29.450  40.420  1.00  0.00     0.192 C 
HETATM   11  C10 UNL     1      30.889  29.584  40.348  1.00  0.00     0.136 A 
HETATM   12  C11 UNL     1      28.331  28.038  39.811  1.00  0.00     0.035 C 
HETATM   13  C12 UNL     1      29.613  29.727  41.197  1.00  0.00     0.066 A 
HETATM   14  N2  UNL     1      31.052  28.324  39.859  1.00  0.00     0.014 N 
HETATM   15  O4  UNL     1      30.567  28.735  40.926  1.00  0.00    -0.505 OA
HETATM   16  O5  UNL     1      32.100  27.658  39.868  1.00  0.00    -0.505 OA
HETATM   17  O6  UNL     1      30.489  28.579  38.782  1.00  0.00    -0.505 OA
ENDROOT
BRANCH   4  18
HETATM   18  C4  UNL     1      32.572  26.398  41.258  1.00  0.00     0.142 C 
BRANCH  18  19
HETATM   19  C5  UNL     1      31.583  25.409  41.885  1.00  0.00     0.183 C 
BRANCH  19  20
HETATM   20  O3  UNL     1      30.347  26.062  42.177  1.00  0.00    -0.400 OA
HETATM   21  H10 UNL     1      30.355  26.289  43.125  1.00  0.00     0.209 HD
ENDBRANCH  19  20
ENDBRANCH  18  19
BRANCH  18  22
HETATM   22  C13 UNL     1      33.980  26.212  41.801  1.00  0.00    -0.043 A 
HETATM   23  C14 UNL     1      34.168  25.721  43.102  1.00  0.00     0.008 A 
HETATM   24  C16 UNL     1      35.455  25.564  43.621  1.00  0.00     0.001 A 
HETATM   25  C18 UNL     1      36.566  25.896  42.847  1.00  0.00     0.000 A 
HETATM   26  C17 UNL     1      36.392  26.388  41.556  1.00  0.00     0.001 A 
HETATM   27  C15 UNL     1      35.108  26.547  41.034  1.00  0.00     0.008 A 
ENDBRANCH  18  22
ENDBRANCH   4  18
TORSDOF 5
