REMARK  9 active torsions:
REMARK  status: ('A' for Active; 'I' for Inactive)
REMARK    1  A    between atoms: C1_1  and  C2_2 
REMARK       I    between atoms: C1_1  and  N1_4 
REMARK    2  A    between atoms: N1_4  and  C3_5 
REMARK    3  A    between atoms: C3_5  and  C4_6 
REMARK    4  A    between atoms: C3_5  and  C5_7 
REMARK    5  A    between atoms: C5_7  and  O2_8 
REMARK    6  A    between atoms: N3_14  and  C15_21 
REMARK    7  A    between atoms: C15_21  and  C16_22 
REMARK    8  A    between atoms: C16_22  and  C17_23 
REMARK    9  A    between atoms: C17_23  and  C18_24 
ROOT
HETATM    1  C2  UNL     1      31.329  28.500  40.506  1.00  0.00     0.157 A 
HETATM    2  N2  UNL     1      30.790  29.696  40.807  1.00  0.00    -0.166 NA
HETATM    3  N3  UNL     1      30.331  30.167  39.636  1.00  0.00    -0.268 N 
HETATM    4  C9  UNL     1      30.529  29.323  38.574  1.00  0.00     0.065 A 
HETATM    5  C10 UNL     1      31.175  28.211  39.110  1.00  0.00     0.028 A 
HETATM    6  C11 UNL     1      30.194  29.424  37.216  1.00  0.00     0.032 A 
HETATM    7  C12 UNL     1      30.528  28.352  36.384  1.00  0.00     0.002 A 
HETATM    8  C13 UNL     1      31.162  27.222  36.892  1.00  0.00     0.001 A 
HETATM    9  C14 UNL     1      31.487  27.135  38.251  1.00  0.00     0.016 A 
ENDROOT
BRANCH   1  10
HETATM   10  C1  UNL     1      31.964  27.678  41.550  1.00  0.00     0.273 C 
HETATM   11  O1  UNL     1      31.334  26.964  42.327  1.00  0.00    -0.266 OA
HETATM   12  N1  UNL     1      33.337  27.789  41.624  1.00  0.00    -0.341 N 
HETATM   13  H1  UNL     1      33.804  28.518  41.094  1.00  0.00     0.163 HD
BRANCH  12  14
HETATM   14  C3  UNL     1      34.118  27.116  42.666  1.00  0.00     0.188 C 
BRANCH  14  15
HETATM   15  C4  UNL     1      34.918  25.928  42.084  1.00  0.00     0.010 C 
HETATM   16  C6  UNL     1      35.752  25.218  43.152  1.00  0.00     0.012 C 
HETATM   17  C7  UNL     1      35.809  26.324  40.902  1.00  0.00     0.012 C 
ENDBRANCH  14  15
BRANCH  14  18
HETATM   18  C5  UNL     1      35.000  28.181  43.328  1.00  0.00     0.281 C 
HETATM   19  O3  UNL     1      35.774  28.905  42.709  1.00  0.00    -0.263 OA
BRANCH  18  20
HETATM   20  O2  UNL     1      34.803  28.214  44.673  1.00  0.00    -0.325 OA
HETATM   21  C8  UNL     1      35.903  27.716  45.437  1.00  0.00     0.213 C 
ENDBRANCH  18  20
ENDBRANCH  14  18
ENDBRANCH  12  14
ENDBRANCH   1  10
BRANCH   3  22
HETATM   22  C15 UNL     1      29.673  31.463  39.619  1.00  0.00     0.154 C 
BRANCH  22  23
HETATM   23  C16 UNL     1      28.237  31.367  40.128  1.00  0.00     0.059 C 
BRANCH  23  24
HETATM   24  C17 UNL     1      27.221  31.227  39.002  1.00  0.00     0.171 C 
HETATM   25  F1  UNL     1      27.151  29.909  38.659  1.00  0.00    -0.249 F 
BRANCH  24  26
HETATM   26  C18 UNL     1      27.557  32.037  37.753  1.00  0.00     0.033 C 
HETATM   27  C19 UNL     1      27.127  31.309  36.488  1.00  0.00     0.008 C 
ENDBRANCH  24  26
ENDBRANCH  23  24
ENDBRANCH  22  23
ENDBRANCH   3  22
TORSDOF 9
