REMARK  23 active torsions:
REMARK  status: ('A' for Active; 'I' for Inactive)
REMARK    1  A    between atoms: C1_1  and  C2_2 
REMARK    2  A    between atoms: C1_1  and  C18_18 
REMARK    3  A    between atoms: C2_2  and  C3_3 
REMARK    4  A    between atoms: C3_3  and  C4_4 
REMARK    5  A    between atoms: C4_4  and  C5_5 
REMARK    6  A    between atoms: C5_5  and  C6_6 
REMARK    7  A    between atoms: C6_6  and  C7_7 
REMARK    8  A    between atoms: C7_7  and  C8_8 
REMARK    9  A    between atoms: C8_8  and  C9_9 
REMARK   10  A    between atoms: C9_9  and  C10_10 
REMARK   11  A    between atoms: C10_10  and  C11_11 
REMARK   12  A    between atoms: C11_11  and  C12_12 
REMARK   13  A    between atoms: C12_12  and  C13_13 
REMARK   14  A    between atoms: C13_13  and  C14_14 
REMARK   15  A    between atoms: C14_14  and  C15_15 
REMARK   16  A    between atoms: C15_15  and  C16_16 
REMARK   17  A    between atoms: C16_16  and  C17_17 
REMARK   18  A    between atoms: C17_17  and  C20_20 
REMARK   19  A    between atoms: C20_20  and  C21_21 
REMARK   20  A    between atoms: C21_21  and  C22_22 
REMARK   21  A    between atoms: C22_22  and  C23_23 
REMARK   22  A    between atoms: C23_23  and  C24_24 
REMARK   23  A    between atoms: C24_24  and  O2_26 
ROOT
HETATM    1  C12 UNL     1      31.260  27.426  37.270  1.00  0.00     0.000 C 
ENDROOT
BRANCH   1   2
HETATM    2  C11 UNL     1      30.623  26.070  36.938  1.00  0.00     0.000 C 
BRANCH   2   3
HETATM    3  C10 UNL     1      30.186  25.264  38.164  1.00  0.00     0.000 C 
BRANCH   3   4
HETATM    4  C9  UNL     1      31.003  23.993  38.439  1.00  0.00     0.000 C 
BRANCH   4   5
HETATM    5  C8  UNL     1      31.323  23.723  39.913  1.00  0.00     0.000 C 
BRANCH   5   6
HETATM    6  C7  UNL     1      31.936  24.894  40.689  1.00  0.00     0.000 C 
BRANCH   6   7
HETATM    7  C6  UNL     1      31.082  25.474  41.822  1.00  0.00     0.000 C 
BRANCH   7   8
HETATM    8  C5  UNL     1      31.817  26.520  42.668  1.00  0.00     0.000 C 
BRANCH   8   9
HETATM    9  C4  UNL     1      33.328  26.268  42.742  1.00  0.00     0.000 C 
BRANCH   9  10
HETATM   10  C3  UNL     1      34.173  27.215  41.880  1.00  0.00     0.000 C 
BRANCH  10  11
HETATM   11  C2  UNL     1      35.341  26.532  41.165  1.00  0.00     0.000 C 
BRANCH  11  12
HETATM   12  C1  UNL     1      36.659  26.601  41.946  1.00  0.00    -0.000 C 
BRANCH  12  13
HETATM   13  C18 UNL     1      37.034  28.016  42.390  1.00  0.00    -0.005 C 
HETATM   14  C19 UNL     1      38.433  28.055  42.988  1.00  0.00     0.005 C 
ENDBRANCH  12  13
ENDBRANCH  11  12
ENDBRANCH  10  11
ENDBRANCH   9  10
ENDBRANCH   8   9
ENDBRANCH   7   8
ENDBRANCH   6   7
ENDBRANCH   5   6
ENDBRANCH   4   5
ENDBRANCH   3   4
ENDBRANCH   2   3
ENDBRANCH   1   2
BRANCH   1  15
HETATM   15  C13 UNL     1      31.560  27.646  38.760  1.00  0.00     0.000 C 
BRANCH  15  16
HETATM   16  C14 UNL     1      30.766  28.788  39.393  1.00  0.00     0.000 C 
BRANCH  16  17
HETATM   17  C15 UNL     1      29.282  28.791  39.007  1.00  0.00     0.000 C 
BRANCH  17  18
HETATM   18  C16 UNL     1      28.329  28.089  39.981  1.00  0.00     0.000 C 
BRANCH  18  19
HETATM   19  C17 UNL     1      27.396  29.048  40.722  1.00  0.00     0.000 C 
BRANCH  19  20
HETATM   20  C20 UNL     1      27.148  30.373  39.989  1.00  0.00     0.000 C 
BRANCH  20  21
HETATM   21  C21 UNL     1      27.030  31.593  40.908  1.00  0.00     0.001 C 
BRANCH  21  22
HETATM   22  C22 UNL     1      28.018  32.707  40.540  1.00  0.00     0.010 C 
BRANCH  22  23
HETATM   23  C23 UNL     1      29.402  32.169  40.193  1.00  0.00     0.110 C 
BRANCH  23  24
HETATM   24  C24 UNL     1      29.835  32.545  38.805  1.00  0.00     0.139 C 
HETATM   25  O1  UNL     1      29.360  32.125  37.763  1.00  0.00    -0.650 OA
BRANCH  24  26
HETATM   26  O2  UNL     1      30.838  33.442  38.795  1.00  0.00    -0.776 OA
HETATM   27  H48 UNL     1      30.582  34.089  39.485  1.00  0.00     0.167 HD
ENDBRANCH  24  26
ENDBRANCH  23  24
ENDBRANCH  22  23
ENDBRANCH  21  22
ENDBRANCH  20  21
ENDBRANCH  19  20
ENDBRANCH  18  19
ENDBRANCH  17  18
ENDBRANCH  16  17
ENDBRANCH  15  16
ENDBRANCH   1  15
TORSDOF 23
