REMARK  3 active torsions:
REMARK  status: ('A' for Active; 'I' for Inactive)
REMARK    1  A    between atoms: C5_5  and  O3_17 
REMARK    2  A    between atoms: O3_17  and  S1_18 
REMARK    3  A    between atoms: S1_18  and  N1_19 
ROOT
HETATM    1  C1  UNL     1      30.828  28.782  37.805  1.00  0.00     0.017 A 
HETATM    2  C2  UNL     1      31.011  27.441  38.173  1.00  0.00     0.005 A 
HETATM    3  C3  UNL     1      31.006  26.502  37.145  1.00  0.00     0.093 A 
HETATM    4  C4  UNL     1      30.858  26.850  35.798  1.00  0.00     0.076 A 
HETATM    5  C5  UNL     1      30.673  28.184  35.462  1.00  0.00     0.093 A 
HETATM    6  C6  UNL     1      30.672  29.152  36.462  1.00  0.00     0.039 A 
HETATM    7  C7  UNL     1      31.185  26.979  39.573  1.00  0.00    -0.033 A 
HETATM    8  C8  UNL     1      31.193  25.649  39.817  1.00  0.00     0.025 A 
HETATM    9  C9  UNL     1      31.189  24.651  38.702  1.00  0.00     0.295 A 
HETATM   10  O1  UNL     1      31.141  25.134  37.409  1.00  0.00    -0.274 OA
HETATM   11  C10 UNL     1      31.372  28.061  40.627  1.00  0.00     0.040 C 
HETATM   12  C11 UNL     1      32.123  27.670  41.902  1.00  0.00     0.005 C 
HETATM   13  C12 UNL     1      31.286  26.882  42.898  1.00  0.00     0.001 C 
HETATM   14  C13 UNL     1      30.454  25.767  42.283  1.00  0.00     0.005 C 
HETATM   15  C14 UNL     1      31.180  24.989  41.186  1.00  0.00     0.045 C 
HETATM   16  O2  UNL     1      31.250  23.443  38.911  1.00  0.00    -0.259 OA
ENDROOT
BRANCH   5  17
HETATM   17  O3  UNL     1      30.546  28.621  34.172  1.00  0.00    -0.221 OA
BRANCH  17  18
HETATM   18  S1  UNL     1      29.084  28.733  33.464  1.00  0.00     0.340 S 
HETATM   19  O4  UNL     1      28.590  27.397  33.214  1.00  0.00    -0.181 OA
HETATM   20  O5  UNL     1      28.272  29.717  34.142  1.00  0.00    -0.181 OA
BRANCH  18  21
HETATM   21  N1  UNL     1      29.363  29.366  31.930  1.00  0.00    -0.206 NA
HETATM   22  H14 UNL     1      30.366  29.327  31.749  1.00  0.00     0.138 HD
HETATM   23  H15 UNL     1      28.827  28.819  31.254  1.00  0.00     0.138 HD
ENDBRANCH  18  21
ENDBRANCH  17  18
ENDBRANCH   5  17
TORSDOF 3
