REMARK  7 active torsions:
REMARK  status: ('A' for Active; 'I' for Inactive)
REMARK    1  A    between atoms: C13_13  and  C14_14 
REMARK    2  A    between atoms: C14_14  and  O2_22 
REMARK    3  A    between atoms: C17_17  and  C19_19 
REMARK    4  A    between atoms: C19_19  and  C21_24 
REMARK    5  A    between atoms: C21_24  and  O5_26 
REMARK    6  A    between atoms: O5_26  and  S1_27 
REMARK    7  A    between atoms: S1_27  and  O6_28 
ROOT
HETATM    1  C1  UNL     1      35.322  25.636  41.823  1.00  0.00     0.084 C 
HETATM    2  C2  UNL     1      35.589  26.283  43.160  1.00  0.00     0.149 C 
HETATM    3  C3  UNL     1      34.630  27.291  43.672  1.00  0.00     0.053 C 
HETATM    4  C4  UNL     1      33.479  27.566  43.034  1.00  0.00    -0.068 C 
HETATM    5  C5  UNL     1      33.057  26.850  41.740  1.00  0.00    -0.014 C 
HETATM    6  C6  UNL     1      34.347  26.449  40.975  1.00  0.00     0.022 C 
HETATM    7  C7  UNL     1      32.601  28.689  43.539  1.00  0.00     0.035 C 
HETATM    8  C8  UNL     1      31.132  28.538  43.157  1.00  0.00     0.010 A 
HETATM    9  C9  UNL     1      30.897  28.275  41.655  1.00  0.00    -0.002 A 
HETATM   10  C10 UNL     1      32.208  27.872  40.904  1.00  0.00     0.031 A 
HETATM   11  C11 UNL     1      30.293  29.465  40.899  1.00  0.00     0.006 A 
HETATM   12  C12 UNL     1      29.865  29.079  39.466  1.00  0.00     0.029 A 
HETATM   13  C13 UNL     1      31.079  28.567  38.668  1.00  0.00     0.050 A 
HETATM   14  C14 UNL     1      31.947  27.522  39.414  1.00  0.00     0.124 A 
HETATM   15  C15 UNL     1      29.060  30.180  41.440  1.00  0.00     0.007 A 
HETATM   16  C16 UNL     1      28.537  30.971  40.225  1.00  0.00     0.014 C 
HETATM   17  C17 UNL     1      29.312  30.448  38.993  1.00  0.00     0.073 C 
HETATM   18  C18 UNL     1      28.741  28.020  39.480  1.00  0.00     0.242 A 
HETATM   19  O1  UNL     1      36.567  25.986  43.844  1.00  0.00    -0.293 OA
HETATM   20  C20 UNL     1      32.272  25.569  42.111  1.00  0.00     0.020 C 
HETATM   21  O3  UNL     1      28.938  26.808  39.494  1.00  0.00    -0.306 OA
HETATM   22 NA1  UNL     1      30.945  28.898  40.638  1.00  0.00     0.000 Na
ENDROOT
BRANCH  17  23
HETATM   23  C19 UNL     1      28.472  30.445  37.719  1.00  0.00     0.157 C 
HETATM   24  O4  UNL     1      27.244  30.527  37.748  1.00  0.00    -0.295 OA
BRANCH  23  25
HETATM   25  C21 UNL     1      29.209  30.299  36.397  1.00  0.00     0.270 C 
BRANCH  25  26
HETATM   26  O5  UNL     1      28.433  30.830  35.348  1.00  0.00    -0.256 OA
BRANCH  26  27
HETATM   27  S1  UNL     1      28.413  30.007  33.956  1.00  0.00     0.240 S 
HETATM   28  O7  UNL     1      29.587  29.166  33.926  1.00  0.00    -0.579 OA
HETATM   29  O8  UNL     1      27.081  29.487  33.772  1.00  0.00    -0.579 OA
BRANCH  27  30
HETATM   30  O6  UNL     1      28.598  31.176  32.870  1.00  0.00    -0.274 OA
HETATM   31  H28 UNL     1      29.558  31.296  32.715  1.00  0.00     0.234 HD
ENDBRANCH  27  30
ENDBRANCH  26  27
ENDBRANCH  25  26
ENDBRANCH  23  25
ENDBRANCH  17  23
BRANCH  14  32
HETATM   32  O2  UNL     1      31.429  26.213  39.261  1.00  0.00    -0.395 OA
HETATM   33  H25 UNL     1      32.172  25.580  39.150  1.00  0.00     0.210 HD
ENDBRANCH  14  32
TORSDOF 7
