REMARK  0 active torsions:
REMARK  status: ('A' for Active; 'I' for Inactive)
ROOT
HETATM    1  C1  UNL     1      33.596  26.196  43.289  1.00  0.00     0.071 A 
HETATM    2  C2  UNL     1      32.874  26.640  42.004  1.00  0.00     0.276 A 
HETATM    3  N1  UNL     1      31.444  26.957  42.204  1.00  0.00     0.080 N 
HETATM    4  C3  UNL     1      30.906  27.599  41.001  1.00  0.00     0.309 C 
HETATM    5  C4  UNL     1      30.659  25.761  42.517  1.00  0.00     0.309 A 
HETATM    6  C5  UNL     1      35.067  26.003  43.070  1.00  0.00    -0.029 A 
HETATM    7  C6  UNL     1      36.077  27.019  43.092  1.00  0.00    -0.002 A 
HETATM    8  C7  UNL     1      37.301  26.399  42.839  1.00  0.00     0.042 A 
HETATM    9  N2  UNL     1      37.047  25.058  42.674  1.00  0.00    -0.365 N 
HETATM   10  C8  UNL     1      35.708  24.808  42.808  1.00  0.00     0.096 A 
HETATM   11  C9  UNL     1      38.510  27.103  42.786  1.00  0.00     0.030 A 
HETATM   12  C10 UNL     1      38.466  28.484  42.997  1.00  0.00     0.002 A 
HETATM   13  C11 UNL     1      37.260  29.133  43.252  1.00  0.00     0.001 A 
HETATM   14  C12 UNL     1      36.061  28.414  43.302  1.00  0.00     0.014 A 
HETATM   15  C13 UNL     1      34.119  25.971  42.279  1.00  0.00     0.088 A 
HETATM   16  C14 UNL     1      34.718  26.996  42.900  1.00  0.00     0.088 A 
HETATM   17  C15 UNL     1      36.170  26.963  43.085  1.00  0.00     0.165 A 
HETATM   18  O1  UNL     1      36.581  28.068  43.723  1.00  0.00    -0.773 OA
HETATM   19  O2  UNL     1      36.939  26.089  42.735  1.00  0.00    -0.647 OA
HETATM   20  C16 UNL     1      32.673  25.914  42.045  1.00  0.00     0.165 A 
HETATM   21  O3  UNL     1      32.006  26.980  42.512  1.00  0.00    -0.773 OA
HETATM   22  O4  UNL     1      32.102  24.997  41.485  1.00  0.00    -0.647 OA
HETATM   23  H11 UNL     1      37.754  24.362  42.481  1.00  0.00     0.165 HD
HETATM   24  H19 UNL     1      37.552  27.954  43.798  1.00  0.00     0.167 HD
HETATM   25  H20 UNL     1      31.073  26.790  42.282  1.00  0.00     0.167 HD
ENDROOT
TORSDOF 0
