REMARK  17 active torsions:
REMARK  status: ('A' for Active; 'I' for Inactive)
REMARK    1  A    between atoms: C1_1  and  C8_8 
REMARK    2  A    between atoms: C2_2  and  C5_5 
REMARK    3  A    between atoms: C3_3  and  C4_4 
REMARK    4  A    between atoms: C4_4  and  C22_25 
REMARK    5  A    between atoms: C5_5  and  C6_6 
REMARK    6  A    between atoms: C7_7  and  C11_11 
REMARK    7  A    between atoms: C8_8  and  C9_9 
REMARK    8  A    between atoms: C10_10  and  C15_15 
REMARK    9  A    between atoms: C11_11  and  C12_12 
REMARK   10  A    between atoms: C12_12  and  C13_13 
REMARK   11  A    between atoms: C13_13  and  C14_14 
REMARK       I    between atoms: C14_14  and  N1_20 
REMARK   12  A    between atoms: C15_15  and  C16_16 
REMARK   13  A    between atoms: C16_16  and  C17_17 
REMARK   14  A    between atoms: C17_17  and  C18_18 
REMARK   15  A    between atoms: N1_20  and  C20_21 
REMARK   16  A    between atoms: C20_21  and  C21_22 
REMARK   17  A    between atoms: C21_22  and  O1_23 
ROOT
HETATM    1  C5  UNL     1      31.643  24.875  40.137  1.00  0.00     0.053 C 
ENDROOT
BRANCH   1   2
HETATM    2  C2  UNL     1      30.940  24.967  41.460  1.00  0.00    -0.027 C 
HETATM    3  C3  UNL     1      31.340  25.622  42.564  1.00  0.00    -0.027 C 
BRANCH   3   4
HETATM    4  C4  UNL     1      32.587  26.438  42.747  1.00  0.00     0.053 C 
BRANCH   4   5
HETATM    5  C22 UNL     1      32.287  27.734  43.446  1.00  0.00    -0.027 C 
HETATM    6  C1  UNL     1      33.157  28.688  43.821  1.00  0.00    -0.027 C 
BRANCH   6   7
HETATM    7  C8  UNL     1      34.652  28.685  43.662  1.00  0.00     0.053 C 
BRANCH   7   8
HETATM    8  C9  UNL     1      35.305  27.924  44.780  1.00  0.00    -0.027 C 
HETATM    9  C10 UNL     1      36.602  27.596  44.902  1.00  0.00    -0.030 C 
BRANCH   9  10
HETATM   10  C15 UNL     1      37.722  27.944  43.962  1.00  0.00     0.027 C 
BRANCH  10  11
HETATM   11  C16 UNL     1      37.722  27.103  42.684  1.00  0.00     0.004 C 
BRANCH  11  12
HETATM   12  C17 UNL     1      37.149  25.696  42.882  1.00  0.00    -0.000 C 
BRANCH  12  13
HETATM   13  C18 UNL     1      36.075  25.385  41.837  1.00  0.00    -0.005 C 
HETATM   14  C19 UNL     1      35.813  26.581  40.936  1.00  0.00     0.005 C 
ENDBRANCH  12  13
ENDBRANCH  11  12
ENDBRANCH  10  11
ENDBRANCH   9  10
ENDBRANCH   7   8
ENDBRANCH   6   7
ENDBRANCH   4   5
ENDBRANCH   3   4
ENDBRANCH   1   2
BRANCH   1  15
HETATM   15  C6  UNL     1      30.896  25.642  39.082  1.00  0.00    -0.027 C 
HETATM   16  C7  UNL     1      30.885  26.971  38.890  1.00  0.00    -0.030 C 
BRANCH  16  17
HETATM   17  C11 UNL     1      31.583  28.009  39.722  1.00  0.00     0.027 C 
BRANCH  17  18
HETATM   18  C12 UNL     1      30.761  29.286  39.913  1.00  0.00     0.013 C 
BRANCH  18  19
HETATM   19  C13 UNL     1      30.436  29.998  38.600  1.00  0.00     0.103 C 
BRANCH  19  20
HETATM   20  C14 UNL     1      29.274  30.962  38.747  1.00  0.00     0.217 C 
HETATM   21  N1  UNL     1      28.437  30.631  39.794  1.00  0.00    -0.355 N 
HETATM   22  H31 UNL     1      28.832  30.060  40.531  1.00  0.00     0.162 HD
HETATM   23  O2  UNL     1      29.088  31.929  38.016  1.00  0.00    -0.274 OA
BRANCH  21  24
HETATM   24  C20 UNL     1      27.360  31.530  40.204  1.00  0.00     0.104 C 
HETATM   25  C23 UNL     1      26.184  30.709  40.727  1.00  0.00     0.034 C 
BRANCH  24  26
HETATM   26  C21 UNL     1      27.863  32.533  41.257  1.00  0.00     0.189 C 
BRANCH  26  27
HETATM   27  O1  UNL     1      27.405  33.851  40.949  1.00  0.00    -0.399 OA
HETATM   28  H35 UNL     1      27.557  34.389  41.747  1.00  0.00     0.209 HD
ENDBRANCH  26  27
ENDBRANCH  24  26
ENDBRANCH  21  24
ENDBRANCH  19  20
ENDBRANCH  18  19
ENDBRANCH  17  18
ENDBRANCH  16  17
ENDBRANCH   1  15
TORSDOF 17
