REMARK  17 active torsions:
REMARK  status: ('A' for Active; 'I' for Inactive)
REMARK    1  A    between atoms: C1_1  and  C5_5 
REMARK    2  A    between atoms: C2_2  and  C12_12 
REMARK    3  A    between atoms: C3_3  and  C4_4 
REMARK    4  A    between atoms: C3_3  and  C6_6 
REMARK    5  A    between atoms: C4_4  and  C5_5 
REMARK    6  A    between atoms: C6_6  and  C7_7 
REMARK    7  A    between atoms: C7_7  and  C8_8 
REMARK    8  A    between atoms: C8_8  and  C9_9 
REMARK    9  A    between atoms: C9_9  and  C10_10 
REMARK   10  A    between atoms: C10_10  and  C11_11 
REMARK   11  A    between atoms: C11_11  and  C20_20 
REMARK   12  A    between atoms: C12_12  and  C13_13 
REMARK   13  A    between atoms: C14_14  and  C15_15 
REMARK   14  A    between atoms: C15_15  and  C16_16 
REMARK   15  A    between atoms: C16_16  and  C17_17 
REMARK   16  A    between atoms: C17_17  and  C18_18 
REMARK   17  A    between atoms: C20_20  and  O2_22 
ROOT
HETATM    1  C4  UNL     1      31.235  24.012  39.243  1.00  0.00     0.004 C 
ENDROOT
BRANCH   1   2
HETATM    2  C3  UNL     1      30.733  24.823  38.042  1.00  0.00     0.000 C 
BRANCH   2   3
HETATM    3  C6  UNL     1      30.102  26.185  38.339  1.00  0.00     0.000 C 
BRANCH   3   4
HETATM    4  C7  UNL     1      30.962  27.371  37.897  1.00  0.00     0.000 C 
BRANCH   4   5
HETATM    5  C8  UNL     1      30.688  28.600  38.767  1.00  0.00     0.000 C 
BRANCH   5   6
HETATM    6  C9  UNL     1      29.236  29.083  38.700  1.00  0.00     0.001 C 
BRANCH   6   7
HETATM    7  C10 UNL     1      29.025  30.511  38.180  1.00  0.00     0.010 C 
BRANCH   7   8
HETATM    8  C11 UNL     1      30.308  31.295  37.900  1.00  0.00     0.110 C 
BRANCH   8   9
HETATM    9  C20 UNL     1      30.393  32.580  38.679  1.00  0.00     0.139 C 
HETATM   10  O1  UNL     1      29.811  32.863  39.711  1.00  0.00    -0.650 OA
BRANCH   9  11
HETATM   11  O2  UNL     1      31.261  33.448  38.123  1.00  0.00    -0.776 OA
HETATM   12  H36 UNL     1      32.014  32.885  37.846  1.00  0.00     0.167 HD
ENDBRANCH   9  11
ENDBRANCH   8   9
ENDBRANCH   7   8
ENDBRANCH   6   7
ENDBRANCH   5   6
ENDBRANCH   4   5
ENDBRANCH   3   4
ENDBRANCH   2   3
ENDBRANCH   1   2
BRANCH   1  13
HETATM   13  C5  UNL     1      31.915  24.831  40.348  1.00  0.00     0.027 C 
BRANCH  13  14
HETATM   14  C1  UNL     1      31.137  24.879  41.632  1.00  0.00    -0.030 C 
HETATM   15  C2  UNL     1      30.832  25.957  42.375  1.00  0.00    -0.027 C 
BRANCH  15  16
HETATM   16  C12 UNL     1      31.220  27.388  42.132  1.00  0.00     0.053 C 
BRANCH  16  17
HETATM   17  C13 UNL     1      32.085  27.913  43.242  1.00  0.00    -0.027 C 
HETATM   18  C14 UNL     1      33.427  27.955  43.297  1.00  0.00    -0.030 C 
BRANCH  18  19
HETATM   19  C15 UNL     1      34.405  27.512  42.244  1.00  0.00     0.027 C 
BRANCH  19  20
HETATM   20  C16 UNL     1      34.848  26.056  42.426  1.00  0.00     0.004 C 
BRANCH  20  21
HETATM   21  C17 UNL     1      35.388  25.770  43.830  1.00  0.00    -0.000 C 
BRANCH  21  22
HETATM   22  C18 UNL     1      36.292  24.537  43.889  1.00  0.00    -0.005 C 
HETATM   23  C19 UNL     1      37.004  24.244  42.578  1.00  0.00     0.005 C 
ENDBRANCH  21  22
ENDBRANCH  20  21
ENDBRANCH  19  20
ENDBRANCH  18  19
ENDBRANCH  16  17
ENDBRANCH  15  16
ENDBRANCH  13  14
ENDBRANCH   1  13
TORSDOF 17
