MODEL 1
REMARK VINA RESULT:      -6.7      0.000      0.000
REMARK  14 active torsions:
REMARK  status: ('A' for Active; 'I' for Inactive)
REMARK    1  A    between atoms: C4_4  and  C7_7 
REMARK    2  A    between atoms: C7_7  and  S1_8 
REMARK    3  A    between atoms: S1_8  and  C8_9 
REMARK    4  A    between atoms: C8_9  and  C9_10 
REMARK    5  A    between atoms: C9_10  and  C10_11 
REMARK    6  A    between atoms: C10_11  and  C11_12 
REMARK    7  A    between atoms: C10_11  and  S2_18 
REMARK    8  A    between atoms: C11_12  and  C12_13 
REMARK    9  A    between atoms: C12_13  and  C13_14 
REMARK   10  A    between atoms: C13_14  and  C14_15 
REMARK   11  A    between atoms: C14_15  and  C15_16 
REMARK   12  A    between atoms: C15_16  and  O1_17 
REMARK   13  A    between atoms: S2_18  and  C16_19 
REMARK   14  A    between atoms: C16_19  and  C17_20 
ROOT
HETATM    1  C10 UNL     1       0.049   2.643  -9.951  1.00  0.00     0.048 C 
ENDROOT
BRANCH   1   2
HETATM    2  C9  UNL     1       0.743   3.730  -9.093  1.00  0.00     0.025 C 
BRANCH   2   3
HETATM    3  C8  UNL     1       2.268   3.603  -9.140  1.00  0.00     0.075 C 
BRANCH   3   4
HETATM    4  S1  UNL     1       3.060   5.012  -9.981  1.00  0.00    -0.164 SA
BRANCH   4   5
HETATM    5  C7  UNL     1       1.604   6.079 -10.227  1.00  0.00     0.112 C 
BRANCH   5   6
HETATM    6  C4  UNL     1       1.629   6.739 -11.583  1.00  0.00    -0.049 A 
HETATM    7  C3  UNL     1       2.848   7.092 -12.181  1.00  0.00     0.008 A 
HETATM    8  C2  UNL     1       2.869   7.698 -13.439  1.00  0.00     0.001 A 
HETATM    9  C1  UNL     1       1.677   7.950 -14.113  1.00  0.00     0.000 A 
HETATM   10  C6  UNL     1       0.461   7.595 -13.534  1.00  0.00     0.001 A 
HETATM   11  C5  UNL     1       0.436   6.989 -12.276  1.00  0.00     0.008 A 
ENDBRANCH   5   6
ENDBRANCH   4   5
ENDBRANCH   3   4
ENDBRANCH   2   3
ENDBRANCH   1   2
BRANCH   1  12
HETATM   12  C11 UNL     1       1.048   1.662 -10.599  1.00  0.00     0.015 C 
BRANCH  12  13
HETATM   13  C12 UNL     1       1.053   0.240 -10.023  1.00  0.00     0.002 C 
BRANCH  13  14
HETATM   14  C13 UNL     1      -0.112  -0.618 -10.529  1.00  0.00     0.010 C 
BRANCH  14  15
HETATM   15  C14 UNL     1       0.072  -1.048 -11.985  1.00  0.00     0.110 C 
BRANCH  15  16
HETATM   16  C15 UNL     1      -1.226  -1.100 -12.746  1.00  0.00     0.139 C 
HETATM   17  O2  UNL     1      -2.353  -1.006 -12.294  1.00  0.00    -0.650 OA
BRANCH  16  18
HETATM   18  O1  UNL     1      -1.027  -1.304 -14.063  1.00  0.00    -0.776 OA
HETATM   19  H21 UNL     1      -0.108  -0.999 -14.217  1.00  0.00     0.167 HD
ENDBRANCH  16  18
ENDBRANCH  15  16
ENDBRANCH  14  15
ENDBRANCH  13  14
ENDBRANCH  12  13
ENDBRANCH   1  12
BRANCH   1  20
HETATM   20  S2  UNL     1      -0.901   3.506 -11.284  1.00  0.00    -0.160 SA
BRANCH  20  21
HETATM   21  C16 UNL     1      -0.587   2.421 -12.718  1.00  0.00     0.112 C 
BRANCH  21  22
HETATM   22  C17 UNL     1       0.036   3.120 -13.899  1.00  0.00    -0.049 A 
HETATM   23  C18 UNL     1       1.301   3.719 -13.783  1.00  0.00     0.008 A 
HETATM   24  C19 UNL     1       1.884   4.363 -14.876  1.00  0.00     0.001 A 
HETATM   25  C20 UNL     1       1.209   4.421 -16.093  1.00  0.00     0.000 A 
HETATM   26  C21 UNL     1      -0.051   3.839 -16.219  1.00  0.00     0.001 A 
HETATM   27  C22 UNL     1      -0.636   3.195 -15.128  1.00  0.00     0.008 A 
ENDBRANCH  21  22
ENDBRANCH  20  21
ENDBRANCH   1  20
TORSDOF 14
ENDMDL
MODEL 2
REMARK VINA RESULT:      -6.7      3.484      6.610
REMARK  14 active torsions:
REMARK  status: ('A' for Active; 'I' for Inactive)
REMARK    1  A    between atoms: C4_4  and  C7_7 
REMARK    2  A    between atoms: C7_7  and  S1_8 
REMARK    3  A    between atoms: S1_8  and  C8_9 
REMARK    4  A    between atoms: C8_9  and  C9_10 
REMARK    5  A    between atoms: C9_10  and  C10_11 
REMARK    6  A    between atoms: C10_11  and  C11_12 
REMARK    7  A    between atoms: C10_11  and  S2_18 
REMARK    8  A    between atoms: C11_12  and  C12_13 
REMARK    9  A    between atoms: C12_13  and  C13_14 
REMARK   10  A    between atoms: C13_14  and  C14_15 
REMARK   11  A    between atoms: C14_15  and  C15_16 
REMARK   12  A    between atoms: C15_16  and  O1_17 
REMARK   13  A    between atoms: S2_18  and  C16_19 
REMARK   14  A    between atoms: C16_19  and  C17_20 
ROOT
HETATM    1  C10 UNL     1       0.550   5.267 -10.393  1.00  0.00     0.048 C 
ENDROOT
BRANCH   1   2
HETATM    2  C9  UNL     1      -0.627   4.287 -10.167  1.00  0.00     0.025 C 
BRANCH   2   3
HETATM    3  C8  UNL     1      -0.746   3.872  -8.698  1.00  0.00     0.075 C 
BRANCH   3   4
HETATM    4  S1  UNL     1      -1.843   2.436  -8.465  1.00  0.00    -0.164 SA
BRANCH   4   5
HETATM    5  C7  UNL     1      -0.624   1.091  -8.622  1.00  0.00     0.112 C 
BRANCH   5   6
HETATM    6  C4  UNL     1      -0.673   0.462  -9.992  1.00  0.00    -0.049 A 
HETATM    7  C3  UNL     1       0.314  -0.453 -10.391  1.00  0.00     0.008 A 
HETATM    8  C2  UNL     1       0.265  -1.038 -11.658  1.00  0.00     0.001 A 
HETATM    9  C1  UNL     1      -0.773  -0.724 -12.533  1.00  0.00     0.000 A 
HETATM   10  C6  UNL     1      -1.764   0.174 -12.144  1.00  0.00     0.001 A 
HETATM   11  C5  UNL     1      -1.717   0.762 -10.878  1.00  0.00     0.008 A 
ENDBRANCH   5   6
ENDBRANCH   4   5
ENDBRANCH   3   4
ENDBRANCH   2   3
ENDBRANCH   1   2
BRANCH   1  12
HETATM   12  C11 UNL     1       0.163   6.478 -11.266  1.00  0.00     0.015 C 
BRANCH  12  13
HETATM   13  C12 UNL     1       1.304   7.107 -12.076  1.00  0.00     0.002 C 
BRANCH  13  14
HETATM   14  C13 UNL     1       0.843   7.679 -13.422  1.00  0.00     0.010 C 
BRANCH  14  15
HETATM   15  C14 UNL     1       1.997   7.831 -14.413  1.00  0.00     0.110 C 
BRANCH  15  16
HETATM   16  C15 UNL     1       2.863   9.028 -14.120  1.00  0.00     0.139 C 
HETATM   17  O2  UNL     1       2.528  10.199 -14.108  1.00  0.00    -0.650 OA
BRANCH  16  18
HETATM   18  O1  UNL     1       4.142   8.676 -13.882  1.00  0.00    -0.776 OA
HETATM   19  H21 UNL     1       4.385   8.119 -14.652  1.00  0.00     0.167 HD
ENDBRANCH  16  18
ENDBRANCH  15  16
ENDBRANCH  14  15
ENDBRANCH  13  14
ENDBRANCH  12  13
ENDBRANCH   1  12
BRANCH   1  20
HETATM   20  S2  UNL     1       1.907   4.328 -11.231  1.00  0.00    -0.160 SA
BRANCH  20  21
HETATM   21  C16 UNL     1       0.967   3.040 -12.119  1.00  0.00     0.112 C 
BRANCH  21  22
HETATM   22  C17 UNL     1       0.723   3.345 -13.576  1.00  0.00    -0.049 A 
HETATM   23  C18 UNL     1       1.670   4.071 -14.316  1.00  0.00     0.008 A 
HETATM   24  C19 UNL     1       1.451   4.350 -15.666  1.00  0.00     0.001 A 
HETATM   25  C20 UNL     1       0.284   3.913 -16.289  1.00  0.00     0.000 A 
HETATM   26  C21 UNL     1      -0.667   3.199 -15.563  1.00  0.00     0.001 A 
HETATM   27  C22 UNL     1      -0.451   2.919 -14.213  1.00  0.00     0.008 A 
ENDBRANCH  21  22
ENDBRANCH  20  21
ENDBRANCH   1  20
TORSDOF 14
ENDMDL
