MODEL 1
REMARK VINA RESULT:     -10.0      0.000      0.000
REMARK  2 active torsions:
REMARK  status: ('A' for Active; 'I' for Inactive)
REMARK    1  A    between atoms: C5_5  and  C7_7 
REMARK    2  A    between atoms: C11_12  and  C15_17 
ROOT
HETATM    1  C1  UNL     1      -0.201   2.694 -13.735  1.00  0.00    -0.028 A 
HETATM    2  C2  UNL     1       0.257   3.057 -12.458  1.00  0.00     0.016 A 
HETATM    3  C3  UNL     1       0.235   2.102 -11.433  1.00  0.00     0.025 A 
HETATM    4  C4  UNL     1      -0.311   0.833 -11.643  1.00  0.00     0.017 A 
HETATM    5  C5  UNL     1      -0.825   0.486 -12.894  1.00  0.00     0.010 A 
HETATM    6  C6  UNL     1      -0.768   1.418 -13.936  1.00  0.00     0.024 A 
HETATM    7  C9  UNL     1      -0.124   3.670 -14.892  1.00  0.00     0.049 C 
HETATM    8  C10 UNL     1       0.646   4.965 -14.571  1.00  0.00     0.023 C 
HETATM    9  C11 UNL     1       0.460   5.382 -13.112  1.00  0.00     0.100 C 
HETATM   10  N1  UNL     1       0.862   4.299 -12.208  1.00  0.00    -0.283 NA
HETATM   11  C12 UNL     1       0.677   3.143 -16.057  1.00  0.00    -0.021 C 
HETATM   12  C13 UNL     1       1.888   3.709 -16.131  1.00  0.00    -0.029 C 
HETATM   13  C14 UNL     1       2.091   4.698 -15.029  1.00  0.00     0.034 C 
HETATM   14  H10 UNL     1       0.775   4.564 -11.228  1.00  0.00     0.128 HD
ENDROOT
BRANCH   9  15
HETATM   15  C15 UNL     1       1.206   6.671 -12.777  1.00  0.00    -0.020 A 
HETATM   16  C16 UNL     1       0.930   7.850 -13.506  1.00  0.00     0.050 A 
HETATM   17  C17 UNL     1       1.597   9.013 -13.179  1.00  0.00     0.105 A 
HETATM   18  C18 UNL     1       2.517   9.055 -12.162  1.00  0.00     0.106 A 
HETATM   19  O2  UNL     1       1.440  10.217 -13.788  1.00  0.00    -0.323 OA
HETATM   20  C19 UNL     1       2.818   7.941 -11.414  1.00  0.00     0.059 A 
HETATM   21  O3  UNL     1       3.058  10.292 -12.003  1.00  0.00    -0.323 OA
HETATM   22  C20 UNL     1       2.155   6.742 -11.721  1.00  0.00     0.021 A 
HETATM   23 BR1  UNL     1       2.601   5.240 -10.641  1.00  0.00    -0.050 Br
HETATM   24  C21 UNL     1       2.370  11.025 -13.038  1.00  0.00     0.352 A 
ENDBRANCH   9  15
BRANCH   5  25
HETATM   25  C7  UNL     1      -1.405  -0.879 -13.073  1.00  0.00     0.155 C 
HETATM   26  C8  UNL     1      -2.207  -1.483 -11.952  1.00  0.00     0.096 C 
HETATM   27  O1  UNL     1      -1.218  -1.491 -14.122  1.00  0.00    -0.293 OA
ENDBRANCH   5  25
TORSDOF 2
ENDMDL
MODEL 2
REMARK VINA RESULT:      -9.9      1.652      7.667
REMARK  2 active torsions:
REMARK  status: ('A' for Active; 'I' for Inactive)
REMARK    1  A    between atoms: C5_5  and  C7_7 
REMARK    2  A    between atoms: C11_12  and  C15_17 
ROOT
HETATM    1  C1  UNL     1       1.463   5.433 -13.805  1.00  0.00    -0.028 A 
HETATM    2  C2  UNL     1       0.720   5.529 -12.617  1.00  0.00     0.016 A 
HETATM    3  C3  UNL     1       0.617   6.772 -11.980  1.00  0.00     0.025 A 
HETATM    4  C4  UNL     1       1.308   7.887 -12.462  1.00  0.00     0.017 A 
HETATM    5  C5  UNL     1       2.099   7.785 -13.608  1.00  0.00     0.010 A 
HETATM    6  C6  UNL     1       2.173   6.557 -14.276  1.00  0.00     0.024 A 
HETATM    7  C9  UNL     1       1.539   4.126 -14.570  1.00  0.00     0.049 C 
HETATM    8  C10 UNL     1       0.604   3.028 -14.028  1.00  0.00     0.023 C 
HETATM    9  C11 UNL     1       0.446   3.123 -12.510  1.00  0.00     0.100 C 
HETATM   10  N1  UNL     1      -0.034   4.453 -12.121  1.00  0.00    -0.283 NA
HETATM   11  C12 UNL     1       1.046   4.244 -15.991  1.00  0.00    -0.021 C 
HETATM   12  C13 UNL     1      -0.169   3.706 -16.148  1.00  0.00    -0.029 C 
HETATM   13  C14 UNL     1      -0.685   3.149 -14.860  1.00  0.00     0.034 C 
HETATM   14  H10 UNL     1      -0.175   4.532 -11.115  1.00  0.00     0.128 HD
ENDROOT
BRANCH   9  15
HETATM   15  C15 UNL     1      -0.468   2.034 -11.953  1.00  0.00    -0.020 A 
HETATM   16  C16 UNL     1      -0.771   0.901 -12.742  1.00  0.00     0.050 A 
HETATM   17  C17 UNL     1      -1.580  -0.085 -12.218  1.00  0.00     0.105 A 
HETATM   18  C18 UNL     1      -2.094   0.003 -10.949  1.00  0.00     0.106 A 
HETATM   19  O2  UNL     1      -1.960  -1.224 -12.854  1.00  0.00    -0.323 OA
HETATM   20  C19 UNL     1      -1.825   1.077 -10.133  1.00  0.00     0.059 A 
HETATM   21  O3  UNL     1      -2.864  -1.069 -10.626  1.00  0.00    -0.323 OA
HETATM   22  C20 UNL     1      -1.002   2.097 -10.637  1.00  0.00     0.021 A 
HETATM   23 BR1  UNL     1      -0.652   3.548  -9.456  1.00  0.00    -0.050 Br
HETATM   24  C21 UNL     1      -2.775  -1.845 -11.840  1.00  0.00     0.352 A 
ENDBRANCH   9  15
BRANCH   5  25
HETATM   25  C7  UNL     1       2.825   9.000 -14.084  1.00  0.00     0.155 C 
HETATM   26  C8  UNL     1       2.200  10.353 -13.873  1.00  0.00     0.096 C 
HETATM   27  O1  UNL     1       3.913   8.884 -14.643  1.00  0.00    -0.293 OA
ENDBRANCH   5  25
TORSDOF 2
ENDMDL
