MODEL 1
REMARK VINA RESULT:      -6.8      0.000      0.000
REMARK  15 active torsions:
REMARK  status: ('A' for Active; 'I' for Inactive)
REMARK    1  A    between atoms: C2_2  and  C13_15 
REMARK    2  A    between atoms: C3_3  and  C6_8 
REMARK    3  A    between atoms: C4_4  and  O1_6 
REMARK    4  A    between atoms: C6_8  and  C7_9 
REMARK    5  A    between atoms: C8_10  and  C9_11 
REMARK    6  A    between atoms: C9_11  and  C10_12 
REMARK    7  A    between atoms: C10_12  and  C11_13 
REMARK    8  A    between atoms: C11_13  and  C12_14 
REMARK    9  A    between atoms: C12_14  and  O4_24 
REMARK   10  A    between atoms: C14_16  and  C15_17 
REMARK   11  A    between atoms: C15_17  and  C16_18 
REMARK   12  A    between atoms: C15_17  and  O3_23 
REMARK   13  A    between atoms: C16_18  and  C17_19 
REMARK   14  A    between atoms: C17_19  and  C18_20 
REMARK   15  A    between atoms: C18_20  and  C19_21 
ROOT
HETATM    1  C1  UNL     1      -0.715  -0.558 -13.072  1.00  0.00     0.137 C 
HETATM    2  C2  UNL     1      -0.837   0.959 -12.976  1.00  0.00     0.084 C 
HETATM    3  C3  UNL     1      -0.554   1.191 -11.477  1.00  0.00     0.033 C 
HETATM    4  C4  UNL     1       0.426   0.064 -11.111  1.00  0.00     0.130 C 
HETATM    5  C5  UNL     1      -0.043  -1.169 -11.871  1.00  0.00     0.111 C 
HETATM    6  O2  UNL     1      -1.096  -1.218 -14.035  1.00  0.00    -0.297 OA
ENDROOT
BRANCH   2   7
HETATM    7  C13 UNL     1       0.110   1.539 -14.003  1.00  0.00    -0.016 C 
HETATM    8  C14 UNL     1      -0.191   2.224 -15.119  1.00  0.00     0.001 C 
BRANCH   8   9
HETATM    9  C15 UNL     1       0.764   2.803 -16.131  1.00  0.00     0.140 C 
BRANCH   9  10
HETATM   10  C16 UNL     1       1.826   3.805 -15.657  1.00  0.00     0.036 C 
BRANCH  10  11
HETATM   11  C17 UNL     1       1.225   5.117 -15.145  1.00  0.00     0.003 C 
BRANCH  11  12
HETATM   12  C18 UNL     1       1.662   5.470 -13.719  1.00  0.00    -0.000 C 
BRANCH  12  13
HETATM   13  C19 UNL     1       0.785   4.839 -12.638  1.00  0.00    -0.005 C 
HETATM   14  C20 UNL     1       1.404   4.998 -11.259  1.00  0.00     0.005 C 
ENDBRANCH  12  13
ENDBRANCH  11  12
ENDBRANCH  10  11
ENDBRANCH   9  10
BRANCH   9  15
HETATM   15  O3  UNL     1      -0.053   3.438 -17.113  1.00  0.00    -0.392 OA
HETATM   16  H31 UNL     1       0.536   3.707 -17.838  1.00  0.00     0.210 HD
ENDBRANCH   9  15
ENDBRANCH   8   9
ENDBRANCH   2   7
BRANCH   3  17
HETATM   17  C6  UNL     1      -1.842   1.260 -10.615  1.00  0.00     0.035 C 
BRANCH  17  18
HETATM   18  C7  UNL     1      -1.809   2.117  -9.378  1.00  0.00    -0.030 C 
HETATM   19  C8  UNL     1      -1.960   3.448  -9.287  1.00  0.00    -0.031 C 
BRANCH  19  20
HETATM   20  C9  UNL     1      -2.181   4.434 -10.403  1.00  0.00     0.027 C 
BRANCH  20  21
HETATM   21  C10 UNL     1      -2.320   5.885  -9.920  1.00  0.00     0.014 C 
BRANCH  21  22
HETATM   22  C11 UNL     1      -2.045   6.099  -8.431  1.00  0.00     0.110 C 
BRANCH  22  23
HETATM   23  C12 UNL     1      -1.195   7.312  -8.165  1.00  0.00     0.139 C 
HETATM   24  O5  UNL     1      -1.515   8.323  -7.566  1.00  0.00    -0.650 OA
BRANCH  23  25
HETATM   25  O4  UNL     1       0.031   7.199  -8.714  1.00  0.00    -0.776 OA
HETATM   26  H32 UNL     1       0.450   6.468  -8.213  1.00  0.00     0.167 HD
ENDBRANCH  23  25
ENDBRANCH  22  23
ENDBRANCH  21  22
ENDBRANCH  20  21
ENDBRANCH  19  20
ENDBRANCH  17  18
ENDBRANCH   3  17
BRANCH   4  27
HETATM   27  O1  UNL     1       0.485  -0.157  -9.713  1.00  0.00    -0.395 OA
HETATM   28  H10 UNL     1       0.547  -1.116  -9.561  1.00  0.00     0.210 HD
ENDBRANCH   4  27
TORSDOF 15
ENDMDL
MODEL 2
REMARK VINA RESULT:      -6.5      2.338      6.364
REMARK  15 active torsions:
REMARK  status: ('A' for Active; 'I' for Inactive)
REMARK    1  A    between atoms: C2_2  and  C13_15 
REMARK    2  A    between atoms: C3_3  and  C6_8 
REMARK    3  A    between atoms: C4_4  and  O1_6 
REMARK    4  A    between atoms: C6_8  and  C7_9 
REMARK    5  A    between atoms: C8_10  and  C9_11 
REMARK    6  A    between atoms: C9_11  and  C10_12 
REMARK    7  A    between atoms: C10_12  and  C11_13 
REMARK    8  A    between atoms: C11_13  and  C12_14 
REMARK    9  A    between atoms: C12_14  and  O4_24 
REMARK   10  A    between atoms: C14_16  and  C15_17 
REMARK   11  A    between atoms: C15_17  and  C16_18 
REMARK   12  A    between atoms: C15_17  and  O3_23 
REMARK   13  A    between atoms: C16_18  and  C17_19 
REMARK   14  A    between atoms: C17_19  and  C18_20 
REMARK   15  A    between atoms: C18_20  and  C19_21 
ROOT
HETATM    1  C1  UNL     1      -0.592   3.281 -10.171  1.00  0.00     0.137 C 
HETATM    2  C2  UNL     1      -0.291   3.243 -11.665  1.00  0.00     0.084 C 
HETATM    3  C3  UNL     1       1.252   3.206 -11.663  1.00  0.00     0.033 C 
HETATM    4  C4  UNL     1       1.597   2.443 -10.373  1.00  0.00     0.130 C 
HETATM    5  C5  UNL     1       0.596   2.908  -9.324  1.00  0.00     0.111 C 
HETATM    6  O2  UNL     1      -1.691   3.558  -9.698  1.00  0.00    -0.297 OA
ENDROOT
BRANCH   2   7
HETATM    7  C13 UNL     1      -1.055   2.067 -12.234  1.00  0.00    -0.016 C 
HETATM    8  C14 UNL     1      -0.610   0.822 -12.472  1.00  0.00     0.001 C 
BRANCH   8   9
HETATM    9  C15 UNL     1      -1.385  -0.342 -13.032  1.00  0.00     0.140 C 
BRANCH   9  10
HETATM   10  C16 UNL     1      -1.934  -1.401 -12.065  1.00  0.00     0.036 C 
BRANCH  10  11
HETATM   11  C17 UNL     1      -3.353  -1.091 -11.580  1.00  0.00     0.003 C 
BRANCH  11  12
HETATM   12  C18 UNL     1      -3.462  -0.965 -10.057  1.00  0.00    -0.000 C 
BRANCH  12  13
HETATM   13  C19 UNL     1      -2.774   0.279  -9.496  1.00  0.00    -0.005 C 
HETATM   14  C20 UNL     1      -1.560  -0.088  -8.659  1.00  0.00     0.005 C 
ENDBRANCH  12  13
ENDBRANCH  11  12
ENDBRANCH  10  11
ENDBRANCH   9  10
BRANCH   9  15
HETATM   15  O3  UNL     1      -0.504  -0.984 -13.953  1.00  0.00    -0.392 OA
HETATM   16  H31 UNL     1      -0.407  -1.905 -13.656  1.00  0.00     0.210 HD
ENDBRANCH   9  15
ENDBRANCH   8   9
ENDBRANCH   2   7
BRANCH   3  17
HETATM   17  C6  UNL     1       1.898   4.609 -11.800  1.00  0.00     0.035 C 
BRANCH  17  18
HETATM   18  C7  UNL     1       1.050   5.715 -12.369  1.00  0.00    -0.030 C 
HETATM   19  C8  UNL     1       0.959   6.117 -13.647  1.00  0.00    -0.031 C 
BRANCH  19  20
HETATM   20  C9  UNL     1       1.697   5.576 -14.842  1.00  0.00     0.027 C 
BRANCH  20  21
HETATM   21  C10 UNL     1       0.857   4.619 -15.700  1.00  0.00     0.014 C 
BRANCH  21  22
HETATM   22  C11 UNL     1       1.375   3.180 -15.758  1.00  0.00     0.110 C 
BRANCH  22  23
HETATM   23  C12 UNL     1       0.267   2.165 -15.811  1.00  0.00     0.139 C 
HETATM   24  O5  UNL     1      -0.933   2.377 -15.802  1.00  0.00    -0.650 OA
BRANCH  23  25
HETATM   25  O4  UNL     1       0.739   0.902 -15.836  1.00  0.00    -0.776 OA
HETATM   26  H32 UNL     1       0.905   0.692 -14.892  1.00  0.00     0.167 HD
ENDBRANCH  23  25
ENDBRANCH  22  23
ENDBRANCH  21  22
ENDBRANCH  20  21
ENDBRANCH  19  20
ENDBRANCH  17  18
ENDBRANCH   3  17
BRANCH   4  27
HETATM   27  O1  UNL     1       2.938   2.658  -9.970  1.00  0.00    -0.395 OA
HETATM   28  H10 UNL     1       3.490   2.701 -10.769  1.00  0.00     0.210 HD
ENDBRANCH   4  27
TORSDOF 15
ENDMDL
