MODEL 1
REMARK VINA RESULT:      -6.3      0.000      0.000
REMARK  18 active torsions:
REMARK  status: ('A' for Active; 'I' for Inactive)
REMARK    1  A    between atoms: C2_2  and  C3_3 
REMARK    2  A    between atoms: C3_3  and  C4_4 
REMARK    3  A    between atoms: C4_4  and  C5_5 
REMARK    4  A    between atoms: C5_5  and  C6_6 
REMARK    5  A    between atoms: C6_6  and  C7_7 
REMARK    6  A    between atoms: C7_7  and  C8_8 
REMARK    7  A    between atoms: C8_8  and  C9_9 
REMARK    8  A    between atoms: C9_9  and  C10_10 
REMARK    9  A    between atoms: C10_10  and  C11_11 
REMARK   10  A    between atoms: C11_11  and  C12_12 
REMARK   11  A    between atoms: C12_12  and  C13_13 
REMARK   12  A    between atoms: C13_13  and  C14_14 
REMARK   13  A    between atoms: C14_14  and  C15_15 
REMARK   14  A    between atoms: C15_15  and  C16_16 
REMARK       I    between atoms: C16_16  and  N1_17 
REMARK   15  A    between atoms: N1_17  and  C17_19 
REMARK   16  A    between atoms: C17_19  and  C18_20 
REMARK   17  A    between atoms: C18_20  and  C19_21 
REMARK   18  A    between atoms: C24_27  and  O2_30 
ROOT
HETATM    1  C16 UNL     1       3.228   4.105  -8.558  1.00  0.00     0.217 C 
HETATM    2  N1  UNL     1       2.405   3.219  -7.893  1.00  0.00    -0.361 N 
HETATM    3  O1  UNL     1       3.770   5.059  -8.011  1.00  0.00    -0.274 OA
HETATM    4  H32 UNL     1       1.801   2.630  -8.452  1.00  0.00     0.162 HD
ENDROOT
BRANCH   1   5
HETATM    5  C15 UNL     1       3.414   3.753 -10.022  1.00  0.00     0.103 C 
BRANCH   5   6
HETATM    6  C14 UNL     1       2.253   2.918 -10.561  1.00  0.00     0.009 C 
BRANCH   6   7
HETATM    7  C13 UNL     1       1.869   3.264 -12.003  1.00  0.00     0.000 C 
BRANCH   7   8
HETATM    8  C12 UNL     1       0.365   3.482 -12.186  1.00  0.00     0.000 C 
BRANCH   8   9
HETATM    9  C11 UNL     1      -0.328   2.358 -12.966  1.00  0.00     0.000 C 
BRANCH   9  10
HETATM   10  C10 UNL     1      -0.797   2.785 -14.359  1.00  0.00     0.000 C 
BRANCH  10  11
HETATM   11  C9  UNL     1      -0.005   2.143 -15.505  1.00  0.00     0.000 C 
BRANCH  11  12
HETATM   12  C8  UNL     1       1.299   2.856 -15.879  1.00  0.00     0.000 C 
BRANCH  12  13
HETATM   13  C7  UNL     1       1.205   4.352 -16.184  1.00  0.00     0.000 C 
BRANCH  13  14
HETATM   14  C6  UNL     1       1.625   5.290 -15.051  1.00  0.00     0.000 C 
BRANCH  14  15
HETATM   15  C5  UNL     1       0.558   6.267 -14.539  1.00  0.00     0.000 C 
BRANCH  15  16
HETATM   16  C4  UNL     1       1.049   7.247 -13.465  1.00  0.00     0.000 C 
BRANCH  16  17
HETATM   17  C3  UNL     1       2.508   7.088 -13.026  1.00  0.00    -0.000 C 
BRANCH  17  18
HETATM   18  C2  UNL     1       2.745   6.928 -11.521  1.00  0.00    -0.005 C 
HETATM   19  C1  UNL     1       1.466   6.816 -10.706  1.00  0.00     0.005 C 
ENDBRANCH  17  18
ENDBRANCH  16  17
ENDBRANCH  15  16
ENDBRANCH  14  15
ENDBRANCH  13  14
ENDBRANCH  12  13
ENDBRANCH  11  12
ENDBRANCH  10  11
ENDBRANCH   9  10
ENDBRANCH   8   9
ENDBRANCH   7   8
ENDBRANCH   6   7
ENDBRANCH   5   6
ENDBRANCH   1   5
BRANCH   2  20
HETATM   20  C17 UNL     1       1.994   3.462  -6.522  1.00  0.00     0.127 C 
BRANCH  20  21
HETATM   21  C18 UNL     1       0.551   3.027  -6.239  1.00  0.00     0.060 C 
BRANCH  21  22
HETATM   22  C19 UNL     1      -0.317   3.067  -7.463  1.00  0.00    -0.029 A 
HETATM   23  C20 UNL     1      -0.877   4.233  -8.080  1.00  0.00     0.001 A 
HETATM   24  C21 UNL     1      -1.597   3.810  -9.199  1.00  0.00     0.043 A 
HETATM   25  C23 UNL     1      -0.833   5.611  -7.792  1.00  0.00     0.050 A 
HETATM   26  N2  UNL     1      -1.496   2.438  -9.249  1.00  0.00    -0.365 N 
HETATM   27  C26 UNL     1      -2.273   4.698 -10.046  1.00  0.00     0.033 A 
HETATM   28  C22 UNL     1      -0.724   1.983  -8.216  1.00  0.00     0.096 A 
HETATM   29  H37 UNL     1      -1.930   1.859  -9.954  1.00  0.00     0.165 HD
HETATM   30  C25 UNL     1      -2.207   6.062  -9.746  1.00  0.00     0.039 A 
HETATM   31  C24 UNL     1      -1.495   6.503  -8.635  1.00  0.00     0.066 A 
BRANCH  31  32
HETATM   32  O2  UNL     1      -1.416   7.832  -8.330  1.00  0.00    -0.361 OA
HETATM   33  H42 UNL     1      -0.848   7.938  -7.551  1.00  0.00     0.217 HD
ENDBRANCH  31  32
ENDBRANCH  21  22
ENDBRANCH  20  21
ENDBRANCH   2  20
TORSDOF 18
ENDMDL
MODEL 2
REMARK VINA RESULT:      -6.3      2.691      3.892
REMARK  18 active torsions:
REMARK  status: ('A' for Active; 'I' for Inactive)
REMARK    1  A    between atoms: C2_2  and  C3_3 
REMARK    2  A    between atoms: C3_3  and  C4_4 
REMARK    3  A    between atoms: C4_4  and  C5_5 
REMARK    4  A    between atoms: C5_5  and  C6_6 
REMARK    5  A    between atoms: C6_6  and  C7_7 
REMARK    6  A    between atoms: C7_7  and  C8_8 
REMARK    7  A    between atoms: C8_8  and  C9_9 
REMARK    8  A    between atoms: C9_9  and  C10_10 
REMARK    9  A    between atoms: C10_10  and  C11_11 
REMARK   10  A    between atoms: C11_11  and  C12_12 
REMARK   11  A    between atoms: C12_12  and  C13_13 
REMARK   12  A    between atoms: C13_13  and  C14_14 
REMARK   13  A    between atoms: C14_14  and  C15_15 
REMARK   14  A    between atoms: C15_15  and  C16_16 
REMARK       I    between atoms: C16_16  and  N1_17 
REMARK   15  A    between atoms: N1_17  and  C17_19 
REMARK   16  A    between atoms: C17_19  and  C18_20 
REMARK   17  A    between atoms: C18_20  and  C19_21 
REMARK   18  A    between atoms: C24_27  and  O2_30 
ROOT
HETATM    1  C16 UNL     1       1.401   2.900  -8.266  1.00  0.00     0.217 C 
HETATM    2  N1  UNL     1       1.866   1.759  -7.644  1.00  0.00    -0.361 N 
HETATM    3  O1  UNL     1       0.468   3.568  -7.835  1.00  0.00    -0.274 OA
HETATM    4  H32 UNL     1       2.449   1.133  -8.186  1.00  0.00     0.162 HD
ENDROOT
BRANCH   1   5
HETATM    5  C15 UNL     1       2.187   3.252  -9.516  1.00  0.00     0.103 C 
BRANCH   5   6
HETATM    6  C14 UNL     1       1.730   2.439 -10.726  1.00  0.00     0.009 C 
BRANCH   6   7
HETATM    7  C13 UNL     1       0.933   3.259 -11.746  1.00  0.00     0.000 C 
BRANCH   7   8
HETATM    8  C12 UNL     1      -0.578   3.034 -11.645  1.00  0.00     0.000 C 
BRANCH   8   9
HETATM    9  C11 UNL     1      -1.262   2.839 -13.003  1.00  0.00     0.000 C 
BRANCH   9  10
HETATM   10  C10 UNL     1      -0.498   1.901 -13.941  1.00  0.00     0.000 C 
BRANCH  10  11
HETATM   11  C9  UNL     1      -0.497   2.353 -15.406  1.00  0.00     0.000 C 
BRANCH  11  12
HETATM   12  C8  UNL     1       0.863   2.297 -16.109  1.00  0.00     0.000 C 
BRANCH  12  13
HETATM   13  C7  UNL     1       1.507   3.635 -16.475  1.00  0.00     0.000 C 
BRANCH  13  14
HETATM   14  C6  UNL     1       2.137   4.409 -15.317  1.00  0.00     0.000 C 
BRANCH  14  15
HETATM   15  C5  UNL     1       1.256   5.467 -14.639  1.00  0.00     0.000 C 
BRANCH  15  16
HETATM   16  C4  UNL     1       2.020   6.493 -13.794  1.00  0.00     0.000 C 
BRANCH  16  17
HETATM   17  C3  UNL     1       1.600   7.956 -13.969  1.00  0.00    -0.000 C 
BRANCH  17  18
HETATM   18  C2  UNL     1       2.720   8.943 -14.313  1.00  0.00    -0.005 C 
HETATM   19  C1  UNL     1       2.254  10.386 -14.427  1.00  0.00     0.005 C 
ENDBRANCH  17  18
ENDBRANCH  16  17
ENDBRANCH  15  16
ENDBRANCH  14  15
ENDBRANCH  13  14
ENDBRANCH  12  13
ENDBRANCH  11  12
ENDBRANCH  10  11
ENDBRANCH   9  10
ENDBRANCH   8   9
ENDBRANCH   7   8
ENDBRANCH   6   7
ENDBRANCH   5   6
ENDBRANCH   1   5
BRANCH   2  20
HETATM   20  C17 UNL     1       1.162   1.182  -6.513  1.00  0.00     0.127 C 
BRANCH  20  21
HETATM   21  C18 UNL     1       0.437  -0.125  -6.857  1.00  0.00     0.060 C 
BRANCH  21  22
HETATM   22  C19 UNL     1      -0.709   0.080  -7.804  1.00  0.00    -0.029 A 
HETATM   23  C20 UNL     1      -0.771  -0.325  -9.177  1.00  0.00     0.001 A 
HETATM   24  C21 UNL     1      -2.024   0.048  -9.668  1.00  0.00     0.043 A 
HETATM   25  C23 UNL     1       0.123  -0.980 -10.047  1.00  0.00     0.050 A 
HETATM   26  N2  UNL     1      -2.691   0.673  -8.638  1.00  0.00    -0.365 N 
HETATM   27  C26 UNL     1      -2.429  -0.205 -10.985  1.00  0.00     0.033 A 
HETATM   28  C22 UNL     1      -1.913   0.691  -7.513  1.00  0.00     0.096 A 
HETATM   29  H37 UNL     1      -3.622   1.057  -8.712  1.00  0.00     0.165 HD
HETATM   30  C25 UNL     1      -1.529  -0.865 -11.828  1.00  0.00     0.039 A 
HETATM   31  C24 UNL     1      -0.276  -1.243 -11.358  1.00  0.00     0.066 A 
BRANCH  31  32
HETATM   32  O2  UNL     1       0.613  -1.893 -12.165  1.00  0.00    -0.361 OA
HETATM   33  H42 UNL     1       1.339  -2.234 -11.618  1.00  0.00     0.217 HD
ENDBRANCH  31  32
ENDBRANCH  21  22
ENDBRANCH  20  21
ENDBRANCH   2  20
TORSDOF 18
ENDMDL
