MODEL 1
REMARK VINA RESULT:      -5.4      0.000      0.000
REMARK  24 active torsions:
REMARK  status: ('A' for Active; 'I' for Inactive)
REMARK    1  A    between atoms: C1_1  and  C2_2 
REMARK    2  A    between atoms: C1_1  and  C5_5 
REMARK    3  A    between atoms: C2_2  and  C14_15 
REMARK    4  A    between atoms: C3_3  and  C6_6 
REMARK    5  A    between atoms: C4_4  and  C5_5 
REMARK    6  A    between atoms: C6_6  and  C7_7 
REMARK    7  A    between atoms: C7_7  and  C8_8 
REMARK    8  A    between atoms: C8_8  and  C9_9 
REMARK    9  A    between atoms: C9_9  and  C10_10 
REMARK   10  A    between atoms: C10_10  and  C11_11 
REMARK   11  A    between atoms: C11_11  and  C12_12 
REMARK   12  A    between atoms: C12_12  and  C13_13 
REMARK   13  A    between atoms: C13_13  and  O1_14 
REMARK   14  A    between atoms: O1_14  and  C19_20 
REMARK   15  A    between atoms: C14_15  and  C15_16 
REMARK   16  A    between atoms: C15_16  and  C16_17 
REMARK   17  A    between atoms: C16_17  and  C17_18 
REMARK   18  A    between atoms: C19_20  and  C20_21 
REMARK   19  A    between atoms: C20_21  and  O2_22 
REMARK   20  A    between atoms: O2_22  and  P1_23 
REMARK   21  A    between atoms: P1_23  and  O5_26 
REMARK   22  A    between atoms: O5_26  and  C21_27 
REMARK   23  A    between atoms: C21_27  and  C22_28 
REMARK   24  A    between atoms: C22_28  and  N1_29 
ROOT
HETATM    1  C11 UNL     1      -0.651   2.172 -14.990  1.00  0.00     0.002 C 
ENDROOT
BRANCH   1   2
HETATM    2  C10 UNL     1       0.575   2.142 -15.905  1.00  0.00     0.000 C 
BRANCH   2   3
HETATM    3  C9  UNL     1       1.062   3.529 -16.326  1.00  0.00     0.000 C 
BRANCH   3   4
HETATM    4  C8  UNL     1       2.037   4.092 -15.288  1.00  0.00     0.000 C 
BRANCH   4   5
HETATM    5  C7  UNL     1       1.529   5.354 -14.586  1.00  0.00     0.004 C 
BRANCH   5   6
HETATM    6  C6  UNL     1       0.918   5.146 -13.196  1.00  0.00     0.027 C 
BRANCH   6   7
HETATM    7  C3  UNL     1       1.808   5.476 -12.031  1.00  0.00    -0.031 C 
HETATM    8  C4  UNL     1       2.193   4.666 -11.032  1.00  0.00    -0.031 C 
BRANCH   8   9
HETATM    9  C5  UNL     1       1.811   3.227 -10.829  1.00  0.00     0.027 C 
BRANCH   9  10
HETATM   10  C1  UNL     1       0.881   3.013  -9.628  1.00  0.00     0.004 C 
BRANCH  10  11
HETATM   11  C2  UNL     1      -0.320   2.091  -9.873  1.00  0.00     0.000 C 
BRANCH  11  12
HETATM   12  C14 UNL     1      -1.668   2.810  -9.763  1.00  0.00     0.000 C 
BRANCH  12  13
HETATM   13  C15 UNL     1      -1.773   4.041 -10.672  1.00  0.00     0.000 C 
BRANCH  13  14
HETATM   14  C16 UNL     1      -2.499   5.225 -10.025  1.00  0.00    -0.000 C 
BRANCH  14  15
HETATM   15  C17 UNL     1      -1.698   6.528 -10.080  1.00  0.00    -0.005 C 
HETATM   16  C18 UNL     1      -0.449   6.511  -9.211  1.00  0.00     0.005 C 
ENDBRANCH  14  15
ENDBRANCH  13  14
ENDBRANCH  12  13
ENDBRANCH  11  12
ENDBRANCH  10  11
ENDBRANCH   9  10
ENDBRANCH   8   9
ENDBRANCH   6   7
ENDBRANCH   5   6
ENDBRANCH   4   5
ENDBRANCH   3   4
ENDBRANCH   2   3
ENDBRANCH   1   2
BRANCH   1  17
HETATM   17  C12 UNL     1      -0.361   1.758 -13.541  1.00  0.00     0.026 C 
BRANCH  17  18
HETATM   18  C13 UNL     1      -1.243   0.582 -13.123  1.00  0.00     0.167 C 
BRANCH  18  19
HETATM   19  O1  UNL     1      -0.516  -0.622 -13.341  1.00  0.00    -0.389 OA
BRANCH  19  20
HETATM   20  C19 UNL     1       0.220  -1.079 -12.208  1.00  0.00     0.194 C 
BRANCH  20  21
HETATM   21  C20 UNL     1      -0.659  -1.490 -11.029  1.00  0.00     0.207 C 
BRANCH  21  22
HETATM   22  O2  UNL     1       0.149  -2.055 -10.014  1.00  0.00    -0.288 OA
BRANCH  22  23
HETATM   23  P1  UNL     1      -0.593  -2.886  -8.850  1.00  0.00     0.408 P 
HETATM   24  O3  UNL     1      -2.087  -2.681  -8.914  1.00  0.00    -0.624 OA
HETATM   25  O4  UNL     1      -0.047  -4.284  -8.762  1.00  0.00    -0.624 OA
BRANCH  23  26
HETATM   26  O5  UNL     1      -0.072  -2.080  -7.541  1.00  0.00    -0.288 OA
BRANCH  26  27
HETATM   27  C21 UNL     1      -0.512  -0.742  -7.411  1.00  0.00     0.209 C 
BRANCH  27  28
HETATM   28  C22 UNL     1      -1.187  -0.479  -6.049  1.00  0.00     0.262 C 
BRANCH  28  29
HETATM   29  N1  UNL     1      -1.429   1.014  -5.696  1.00  0.00    -0.077 N 
HETATM   30  C23 UNL     1      -2.716   1.518  -6.301  1.00  0.00     0.271 C 
HETATM   31  C24 UNL     1      -1.477   1.115  -4.181  1.00  0.00     0.271 C 
HETATM   32  C25 UNL     1      -0.264   1.887  -6.182  1.00  0.00     0.271 C 
ENDBRANCH  28  29
ENDBRANCH  27  28
ENDBRANCH  26  27
ENDBRANCH  23  26
ENDBRANCH  22  23
ENDBRANCH  21  22
ENDBRANCH  20  21
ENDBRANCH  19  20
ENDBRANCH  18  19
ENDBRANCH  17  18
ENDBRANCH   1  17
TORSDOF 24
ENDMDL
MODEL 2
REMARK VINA RESULT:      -5.3      4.458      6.301
REMARK  24 active torsions:
REMARK  status: ('A' for Active; 'I' for Inactive)
REMARK    1  A    between atoms: C1_1  and  C2_2 
REMARK    2  A    between atoms: C1_1  and  C5_5 
REMARK    3  A    between atoms: C2_2  and  C14_15 
REMARK    4  A    between atoms: C3_3  and  C6_6 
REMARK    5  A    between atoms: C4_4  and  C5_5 
REMARK    6  A    between atoms: C6_6  and  C7_7 
REMARK    7  A    between atoms: C7_7  and  C8_8 
REMARK    8  A    between atoms: C8_8  and  C9_9 
REMARK    9  A    between atoms: C9_9  and  C10_10 
REMARK   10  A    between atoms: C10_10  and  C11_11 
REMARK   11  A    between atoms: C11_11  and  C12_12 
REMARK   12  A    between atoms: C12_12  and  C13_13 
REMARK   13  A    between atoms: C13_13  and  O1_14 
REMARK   14  A    between atoms: O1_14  and  C19_20 
REMARK   15  A    between atoms: C14_15  and  C15_16 
REMARK   16  A    between atoms: C15_16  and  C16_17 
REMARK   17  A    between atoms: C16_17  and  C17_18 
REMARK   18  A    between atoms: C19_20  and  C20_21 
REMARK   19  A    between atoms: C20_21  and  O2_22 
REMARK   20  A    between atoms: O2_22  and  P1_23 
REMARK   21  A    between atoms: P1_23  and  O5_26 
REMARK   22  A    between atoms: O5_26  and  C21_27 
REMARK   23  A    between atoms: C21_27  and  C22_28 
REMARK   24  A    between atoms: C22_28  and  N1_29 
ROOT
HETATM    1  C11 UNL     1       1.882   5.278 -14.649  1.00  0.00     0.002 C 
ENDROOT
BRANCH   1   2
HETATM    2  C10 UNL     1       2.141   3.965 -15.393  1.00  0.00     0.000 C 
BRANCH   2   3
HETATM    3  C9  UNL     1       1.177   3.716 -16.553  1.00  0.00     0.000 C 
BRANCH   3   4
HETATM    4  C8  UNL     1       0.206   2.584 -16.209  1.00  0.00     0.000 C 
BRANCH   4   5
HETATM    5  C7  UNL     1      -0.761   2.926 -15.072  1.00  0.00     0.004 C 
BRANCH   5   6
HETATM    6  C6  UNL     1      -0.757   1.963 -13.879  1.00  0.00     0.027 C 
BRANCH   6   7
HETATM    7  C3  UNL     1      -0.574   0.508 -14.209  1.00  0.00    -0.031 C 
HETATM    8  C4  UNL     1      -0.958  -0.555 -13.486  1.00  0.00    -0.031 C 
BRANCH   8   9
HETATM    9  C5  UNL     1      -1.655  -0.547 -12.154  1.00  0.00     0.027 C 
BRANCH   9  10
HETATM   10  C1  UNL     1      -0.929  -1.379 -11.089  1.00  0.00     0.004 C 
BRANCH  10  11
HETATM   11  C2  UNL     1       0.528  -0.985 -10.815  1.00  0.00     0.000 C 
BRANCH  11  12
HETATM   12  C14 UNL     1       0.705  -0.185  -9.520  1.00  0.00     0.000 C 
BRANCH  12  13
HETATM   13  C15 UNL     1       1.446   1.142  -9.726  1.00  0.00     0.000 C 
BRANCH  13  14
HETATM   14  C16 UNL     1       0.683   2.147 -10.594  1.00  0.00    -0.000 C 
BRANCH  14  15
HETATM   15  C17 UNL     1      -0.767   2.348 -10.151  1.00  0.00    -0.005 C 
HETATM   16  C18 UNL     1      -0.901   3.065  -8.815  1.00  0.00     0.005 C 
ENDBRANCH  14  15
ENDBRANCH  13  14
ENDBRANCH  12  13
ENDBRANCH  11  12
ENDBRANCH  10  11
ENDBRANCH   9  10
ENDBRANCH   8   9
ENDBRANCH   6   7
ENDBRANCH   5   6
ENDBRANCH   4   5
ENDBRANCH   3   4
ENDBRANCH   2   3
ENDBRANCH   1   2
BRANCH   1  17
HETATM   17  C12 UNL     1       1.628   5.105 -13.146  1.00  0.00     0.026 C 
BRANCH  17  18
HETATM   18  C13 UNL     1       2.167   6.300 -12.361  1.00  0.00     0.167 C 
BRANCH  18  19
HETATM   19  O1  UNL     1       1.095   6.867 -11.616  1.00  0.00    -0.389 OA
BRANCH  19  20
HETATM   20  C19 UNL     1       0.096   5.930 -11.215  1.00  0.00     0.194 C 
BRANCH  20  21
HETATM   21  C20 UNL     1      -0.934   6.505 -10.246  1.00  0.00     0.207 C 
BRANCH  21  22
HETATM   22  O2  UNL     1      -0.266   7.116  -9.158  1.00  0.00    -0.288 OA
BRANCH  22  23
HETATM   23  P1  UNL     1      -1.072   7.243  -7.769  1.00  0.00     0.408 P 
HETATM   24  O3  UNL     1      -1.591   8.647  -7.578  1.00  0.00    -0.624 OA
HETATM   25  O4  UNL     1      -2.009   6.082  -7.588  1.00  0.00    -0.624 OA
BRANCH  23  26
HETATM   26  O5  UNL     1       0.144   7.053  -6.710  1.00  0.00    -0.288 OA
BRANCH  26  27
HETATM   27  C21 UNL     1       0.721   5.763  -6.642  1.00  0.00     0.209 C 
BRANCH  27  28
HETATM   28  C22 UNL     1       2.262   5.809  -6.698  1.00  0.00     0.262 C 
BRANCH  28  29
HETATM   29  N1  UNL     1       2.954   4.523  -7.224  1.00  0.00    -0.077 N 
HETATM   30  C23 UNL     1       4.370   4.415  -6.713  1.00  0.00     0.271 C 
HETATM   31  C24 UNL     1       2.125   3.341  -6.752  1.00  0.00     0.271 C 
HETATM   32  C25 UNL     1       2.967   4.497  -8.759  1.00  0.00     0.271 C 
ENDBRANCH  28  29
ENDBRANCH  27  28
ENDBRANCH  26  27
ENDBRANCH  23  26
ENDBRANCH  22  23
ENDBRANCH  21  22
ENDBRANCH  20  21
ENDBRANCH  19  20
ENDBRANCH  18  19
ENDBRANCH  17  18
ENDBRANCH   1  17
TORSDOF 24
ENDMDL
