MODEL 1
REMARK VINA RESULT:      -6.4      0.000      0.000
REMARK  19 active torsions:
REMARK  status: ('A' for Active; 'I' for Inactive)
REMARK    1  A    between atoms: O1_1  and  C1_2 
REMARK    2  A    between atoms: C1_2  and  C2_3 
REMARK    3  A    between atoms: C2_3  and  C3_4 
REMARK    4  A    between atoms: C3_4  and  C4_5 
REMARK    5  A    between atoms: C4_5  and  C5_6 
REMARK    6  A    between atoms: C5_6  and  C6_7 
REMARK    7  A    between atoms: C7_8  and  C8_9 
REMARK    8  A    between atoms: C8_9  and  C9_10 
REMARK    9  A    between atoms: C10_11  and  C11_12 
REMARK   10  A    between atoms: C11_12  and  C12_13 
REMARK   11  A    between atoms: C13_14  and  C14_15 
REMARK   12  A    between atoms: C14_15  and  C15_16 
REMARK   13  A    between atoms: C16_17  and  C17_18 
REMARK   14  A    between atoms: C17_18  and  C18_19 
REMARK   15  A    between atoms: C18_19  and  C19_20 
REMARK   16  A    between atoms: C19_20  and  C20_21 
REMARK       I    between atoms: C20_21  and  N1_22 
REMARK   17  A    between atoms: N1_22  and  C21_24 
REMARK   18  A    between atoms: C21_24  and  C22_25 
REMARK   19  A    between atoms: C22_25  and  O3_26 
ROOT
HETATM    1  C12 UNL     1      -0.467   1.789 -13.358  1.00  0.00    -0.027 C 
HETATM    2  C13 UNL     1      -0.487   1.738 -14.701  1.00  0.00    -0.027 C 
ENDROOT
BRANCH   2   3
HETATM    3  C14 UNL     1      -0.715   2.875 -15.651  1.00  0.00     0.053 C 
BRANCH   3   4
HETATM    4  C15 UNL     1       0.438   3.034 -16.599  1.00  0.00    -0.027 C 
HETATM    5  C16 UNL     1       1.613   3.645 -16.374  1.00  0.00    -0.030 C 
BRANCH   5   6
HETATM    6  C17 UNL     1       2.082   4.280 -15.095  1.00  0.00     0.027 C 
BRANCH   6   7
HETATM    7  C18 UNL     1       1.217   5.473 -14.675  1.00  0.00     0.013 C 
BRANCH   7   8
HETATM    8  C19 UNL     1       1.251   5.726 -13.167  1.00  0.00     0.103 C 
BRANCH   8   9
HETATM    9  C20 UNL     1       2.046   6.966 -12.811  1.00  0.00     0.217 C 
HETATM   10  N1  UNL     1       1.457   8.125 -13.271  1.00  0.00    -0.359 N 
HETATM   11  H32 UNL     1       0.750   8.047 -13.991  1.00  0.00     0.162 HD
HETATM   12  O2  UNL     1       3.105   6.947 -12.193  1.00  0.00    -0.274 OA
BRANCH  10  13
HETATM   13  C21 UNL     1       2.158   9.396 -13.211  1.00  0.00     0.148 C 
BRANCH  13  14
HETATM   14  C22 UNL     1       3.069   9.584 -14.425  1.00  0.00     0.183 C 
BRANCH  14  15
HETATM   15  O3  UNL     1       4.313   8.917 -14.195  1.00  0.00    -0.399 OA
HETATM   16  H37 UNL     1       4.214   8.435 -13.354  1.00  0.00     0.209 HD
ENDBRANCH  14  15
ENDBRANCH  13  14
ENDBRANCH  10  13
ENDBRANCH   8   9
ENDBRANCH   7   8
ENDBRANCH   6   7
ENDBRANCH   5   6
ENDBRANCH   3   4
ENDBRANCH   2   3
BRANCH   1  17
HETATM   17  C11 UNL     1      -0.725   2.981 -12.482  1.00  0.00     0.053 C 
BRANCH  17  18
HETATM   18  C10 UNL     1      -1.507   2.598 -11.259  1.00  0.00    -0.027 C 
HETATM   19  C9  UNL     1      -1.954   3.418 -10.293  1.00  0.00    -0.027 C 
BRANCH  19  20
HETATM   20  C8  UNL     1      -1.834   4.915 -10.251  1.00  0.00     0.053 C 
BRANCH  20  21
HETATM   21  C7  UNL     1      -2.484   5.482  -9.022  1.00  0.00    -0.027 C 
HETATM   22  C6  UNL     1      -2.130   5.289  -7.740  1.00  0.00    -0.030 C 
BRANCH  22  23
HETATM   23  C5  UNL     1      -0.978   4.475  -7.214  1.00  0.00     0.027 C 
BRANCH  23  24
HETATM   24  C4  UNL     1       0.385   5.117  -7.500  1.00  0.00     0.004 C 
BRANCH  24  25
HETATM   25  C3  UNL     1       1.409   4.216  -8.200  1.00  0.00     0.002 C 
BRANCH  25  26
HETATM   26  C2  UNL     1       1.723   4.577  -9.652  1.00  0.00     0.026 C 
BRANCH  26  27
HETATM   27  C1  UNL     1       2.351   3.439 -10.443  1.00  0.00     0.164 C 
BRANCH  27  28
HETATM   28  O1  UNL     1       3.655   3.192  -9.930  1.00  0.00    -0.401 OA
HETATM   29  H1  UNL     1       4.142   2.695 -10.610  1.00  0.00     0.209 HD
ENDBRANCH  27  28
ENDBRANCH  26  27
ENDBRANCH  25  26
ENDBRANCH  24  25
ENDBRANCH  23  24
ENDBRANCH  22  23
ENDBRANCH  20  21
ENDBRANCH  19  20
ENDBRANCH  17  18
ENDBRANCH   1  17
TORSDOF 19
ENDMDL
MODEL 2
REMARK VINA RESULT:      -6.4      2.510      3.404
REMARK  19 active torsions:
REMARK  status: ('A' for Active; 'I' for Inactive)
REMARK    1  A    between atoms: O1_1  and  C1_2 
REMARK    2  A    between atoms: C1_2  and  C2_3 
REMARK    3  A    between atoms: C2_3  and  C3_4 
REMARK    4  A    between atoms: C3_4  and  C4_5 
REMARK    5  A    between atoms: C4_5  and  C5_6 
REMARK    6  A    between atoms: C5_6  and  C6_7 
REMARK    7  A    between atoms: C7_8  and  C8_9 
REMARK    8  A    between atoms: C8_9  and  C9_10 
REMARK    9  A    between atoms: C10_11  and  C11_12 
REMARK   10  A    between atoms: C11_12  and  C12_13 
REMARK   11  A    between atoms: C13_14  and  C14_15 
REMARK   12  A    between atoms: C14_15  and  C15_16 
REMARK   13  A    between atoms: C16_17  and  C17_18 
REMARK   14  A    between atoms: C17_18  and  C18_19 
REMARK   15  A    between atoms: C18_19  and  C19_20 
REMARK   16  A    between atoms: C19_20  and  C20_21 
REMARK       I    between atoms: C20_21  and  N1_22 
REMARK   17  A    between atoms: N1_22  and  C21_24 
REMARK   18  A    between atoms: C21_24  and  C22_25 
REMARK   19  A    between atoms: C22_25  and  O3_26 
ROOT
HETATM    1  C12 UNL     1      -0.446   3.899 -11.300  1.00  0.00    -0.027 C 
HETATM    2  C13 UNL     1       0.264   3.180 -12.187  1.00  0.00    -0.027 C 
ENDROOT
BRANCH   2   3
HETATM    3  C14 UNL     1      -0.226   2.050 -13.042  1.00  0.00     0.053 C 
BRANCH   3   4
HETATM    4  C15 UNL     1      -1.017   2.555 -14.214  1.00  0.00    -0.027 C 
HETATM    5  C16 UNL     1      -0.589   2.763 -15.470  1.00  0.00    -0.030 C 
BRANCH   5   6
HETATM    6  C17 UNL     1       0.782   2.493 -16.024  1.00  0.00     0.027 C 
BRANCH   6   7
HETATM    7  C18 UNL     1       1.581   3.776 -16.274  1.00  0.00     0.013 C 
BRANCH   7   8
HETATM    8  C19 UNL     1       2.234   4.322 -15.004  1.00  0.00     0.103 C 
BRANCH   8   9
HETATM    9  C20 UNL     1       1.618   5.634 -14.561  1.00  0.00     0.217 C 
HETATM   10  N1  UNL     1       2.561   6.548 -14.138  1.00  0.00    -0.359 N 
HETATM   11  H32 UNL     1       3.486   6.207 -13.909  1.00  0.00     0.162 HD
HETATM   12  O2  UNL     1       0.413   5.860 -14.562  1.00  0.00    -0.274 OA
BRANCH  10  13
HETATM   13  C21 UNL     1       2.165   7.785 -13.485  1.00  0.00     0.148 C 
BRANCH  13  14
HETATM   14  C22 UNL     1       2.921   8.982 -14.063  1.00  0.00     0.183 C 
BRANCH  14  15
HETATM   15  O3  UNL     1       4.320   8.692 -14.094  1.00  0.00    -0.399 OA
HETATM   16  H37 UNL     1       4.728   9.226 -13.389  1.00  0.00     0.209 HD
ENDBRANCH  14  15
ENDBRANCH  13  14
ENDBRANCH  10  13
ENDBRANCH   8   9
ENDBRANCH   7   8
ENDBRANCH   6   7
ENDBRANCH   5   6
ENDBRANCH   3   4
ENDBRANCH   2   3
BRANCH   1  17
HETATM   17  C11 UNL     1      -1.882   3.708 -10.907  1.00  0.00     0.053 C 
BRANCH  17  18
HETATM   18  C10 UNL     1      -2.356   4.824 -10.022  1.00  0.00    -0.027 C 
HETATM   19  C9  UNL     1      -2.276   4.885  -8.682  1.00  0.00    -0.027 C 
BRANCH  19  20
HETATM   20  C8  UNL     1      -1.631   3.883  -7.768  1.00  0.00     0.053 C 
BRANCH  20  21
HETATM   21  C7  UNL     1      -2.600   2.813  -7.356  1.00  0.00    -0.027 C 
HETATM   22  C6  UNL     1      -2.676   1.551  -7.811  1.00  0.00    -0.030 C 
BRANCH  22  23
HETATM   23  C5  UNL     1      -1.791   0.884  -8.829  1.00  0.00     0.027 C 
BRANCH  23  24
HETATM   24  C4  UNL     1      -0.462   0.399  -8.238  1.00  0.00     0.004 C 
BRANCH  24  25
HETATM   25  C3  UNL     1       0.241  -0.720  -9.015  1.00  0.00     0.002 C 
BRANCH  25  26
HETATM   26  C2  UNL     1       0.691  -0.358 -10.431  1.00  0.00     0.026 C 
BRANCH  26  27
HETATM   27  C1  UNL     1       0.325  -1.403 -11.475  1.00  0.00     0.164 C 
BRANCH  27  28
HETATM   28  O1  UNL     1      -0.126  -2.576 -10.808  1.00  0.00    -0.401 OA
HETATM   29  H1  UNL     1      -1.098  -2.574 -10.851  1.00  0.00     0.209 HD
ENDBRANCH  27  28
ENDBRANCH  26  27
ENDBRANCH  25  26
ENDBRANCH  24  25
ENDBRANCH  23  24
ENDBRANCH  22  23
ENDBRANCH  20  21
ENDBRANCH  19  20
ENDBRANCH  17  18
ENDBRANCH   1  17
TORSDOF 19
ENDMDL
