MODEL 1
REMARK VINA RESULT:      -1.1      0.000      0.000
REMARK  21 active torsions:
REMARK  status: ('A' for Active; 'I' for Inactive)
REMARK    1  A    between atoms: C1_1  and  C2_2 
REMARK    2  A    between atoms: C1_1  and  C5_5 
REMARK    3  A    between atoms: C3_3  and  C6_6 
REMARK    4  A    between atoms: C4_4  and  C14_14 
REMARK    5  A    between atoms: C6_6  and  C7_7 
REMARK    6  A    between atoms: C8_8  and  C9_9 
REMARK    7  A    between atoms: C9_9  and  C10_10 
REMARK    8  A    between atoms: C10_10  and  C11_11 
REMARK    9  A    between atoms: C11_11  and  C12_12 
REMARK   10  A    between atoms: C14_14  and  C15_15 
REMARK   11  A    between atoms: C16_16  and  C17_17 
REMARK   12  A    between atoms: C17_17  and  C18_18 
REMARK   13  A    between atoms: C18_18  and  C19_19 
REMARK   14  A    between atoms: C19_19  and  C20_20 
REMARK   15  A    between atoms: C20_20  and  O1_21 
REMARK   16  A    between atoms: O1_21  and  C21_23 
REMARK   17  A    between atoms: C21_23  and  C22_24 
REMARK   18  A    between atoms: C21_23  and  C23_25 
REMARK   19  A    between atoms: C22_24  and  N1_26 
REMARK   20  A    between atoms: C23_25  and  C27_30 
REMARK   21  A    between atoms: C27_30  and  O4_33 
ROOT
HETATM    1 CL1  UNL     1      10.213  -6.599 -13.029  1.00  0.00     0.000 Cl
ENDROOT
TORSDOF 21
ENDMDL
MODEL 2
REMARK VINA RESULT:      -1.1     13.771     13.771
REMARK  21 active torsions:
REMARK  status: ('A' for Active; 'I' for Inactive)
REMARK    1  A    between atoms: C1_1  and  C2_2 
REMARK    2  A    between atoms: C1_1  and  C5_5 
REMARK    3  A    between atoms: C3_3  and  C6_6 
REMARK    4  A    between atoms: C4_4  and  C14_14 
REMARK    5  A    between atoms: C6_6  and  C7_7 
REMARK    6  A    between atoms: C8_8  and  C9_9 
REMARK    7  A    between atoms: C9_9  and  C10_10 
REMARK    8  A    between atoms: C10_10  and  C11_11 
REMARK    9  A    between atoms: C11_11  and  C12_12 
REMARK   10  A    between atoms: C14_14  and  C15_15 
REMARK   11  A    between atoms: C16_16  and  C17_17 
REMARK   12  A    between atoms: C17_17  and  C18_18 
REMARK   13  A    between atoms: C18_18  and  C19_19 
REMARK   14  A    between atoms: C19_19  and  C20_20 
REMARK   15  A    between atoms: C20_20  and  O1_21 
REMARK   16  A    between atoms: O1_21  and  C21_23 
REMARK   17  A    between atoms: C21_23  and  C22_24 
REMARK   18  A    between atoms: C21_23  and  C23_25 
REMARK   19  A    between atoms: C22_24  and  N1_26 
REMARK   20  A    between atoms: C23_25  and  C27_30 
REMARK   21  A    between atoms: C27_30  and  O4_33 
ROOT
HETATM    1 CL1  UNL     1       1.555   3.397 -16.869  1.00  0.00     0.000 Cl
ENDROOT
TORSDOF 21
ENDMDL
