MODEL 1
REMARK VINA RESULT:      -7.7      0.000      0.000
REMARK  9 active torsions:
REMARK  status: ('A' for Active; 'I' for Inactive)
REMARK    1  A    between atoms: C2_2  and  O2_8 
REMARK    2  A    between atoms: C3_3  and  O1_7 
REMARK    3  A    between atoms: O1_7  and  C8_10 
REMARK    4  A    between atoms: C8_10  and  C9_11 
REMARK    5  A    between atoms: C9_11  and  C10_12 
REMARK    6  A    between atoms: C10_12  and  C11_13 
REMARK    7  A    between atoms: C14_17  and  C16_20 
REMARK       I    between atoms: C16_20  and  N2_21 
REMARK    8  A    between atoms: N2_21  and  C17_23 
REMARK    9  A    between atoms: C17_23  and  C18_24 
ROOT
HETATM    1  C1  UNL     1       2.701   7.996 -11.809  1.00  0.00     0.040 A 
HETATM    2  C2  UNL     1       2.664   7.497 -13.117  1.00  0.00     0.103 A 
HETATM    3  C3  UNL     1       2.205   6.186 -13.327  1.00  0.00     0.129 A 
HETATM    4  C4  UNL     1       1.842   5.380 -12.242  1.00  0.00     0.082 A 
HETATM    5  C5  UNL     1       1.885   5.881 -10.940  1.00  0.00    -0.005 A 
HETATM    6  C6  UNL     1       2.311   7.194 -10.727  1.00  0.00     0.017 A 
HETATM    7  N1  UNL     1       1.425   4.057 -12.447  1.00  0.00    -0.320 N 
HETATM    8  C13 UNL     1       1.040   3.214 -11.440  1.00  0.00     0.261 A 
HETATM    9  C14 UNL     1       1.081   3.746 -10.043  1.00  0.00     0.100 A 
HETATM   10  C15 UNL     1       1.484   5.014  -9.832  1.00  0.00     0.036 A 
HETATM   11  O3  UNL     1       0.674   2.065 -11.687  1.00  0.00    -0.267 OA
HETATM   12  H17 UNL     1       1.419   3.695 -13.394  1.00  0.00     0.169 HD
ENDROOT
BRANCH   9  13
HETATM   13  C16 UNL     1       0.698   2.941  -8.842  1.00  0.00     0.257 C 
HETATM   14  N2  UNL     1       1.403   1.782  -8.654  1.00  0.00    -0.352 N 
HETATM   15  H19 UNL     1       2.083   1.510  -9.359  1.00  0.00     0.163 HD
HETATM   16  O4  UNL     1      -0.196   3.303  -8.085  1.00  0.00    -0.267 OA
BRANCH  14  17
HETATM   17  C17 UNL     1       1.078   0.825  -7.624  1.00  0.00     0.161 C 
BRANCH  17  18
HETATM   18  C18 UNL     1       0.452  -0.412  -8.216  1.00  0.00    -0.038 A 
HETATM   19  C19 UNL     1       0.535  -0.652  -9.608  1.00  0.00     0.012 A 
HETATM   20  C20 UNL     1      -0.018  -1.805 -10.174  1.00  0.00     0.040 A 
HETATM   21  C21 UNL     1      -0.642  -2.698  -9.331  1.00  0.00     0.105 A 
HETATM   22  C22 UNL     1      -0.720  -2.478  -7.978  1.00  0.00     0.105 A 
HETATM   23  O5  UNL     1      -1.226  -3.867  -9.705  1.00  0.00    -0.323 OA
HETATM   24  C23 UNL     1      -0.178  -1.355  -7.389  1.00  0.00     0.048 A 
HETATM   25  O6  UNL     1      -1.374  -3.481  -7.328  1.00  0.00    -0.323 OA
HETATM   26  C24 UNL     1      -1.696  -4.352  -8.430  1.00  0.00     0.352 A 
ENDBRANCH  17  18
ENDBRANCH  14  17
ENDBRANCH   9  13
BRANCH   3  27
HETATM   27  O1  UNL     1       2.177   5.640 -14.588  1.00  0.00    -0.346 OA
BRANCH  27  28
HETATM   28  C8  UNL     1       0.851   5.648 -15.121  1.00  0.00     0.176 C 
BRANCH  28  29
HETATM   29  C9  UNL     1       0.765   4.660 -16.284  1.00  0.00     0.027 C 
BRANCH  29  30
HETATM   30  C10 UNL     1       1.655   3.428 -16.077  1.00  0.00     0.002 C 
BRANCH  30  31
HETATM   31  C11 UNL     1       0.859   2.124 -15.995  1.00  0.00    -0.004 C 
HETATM   32  C12 UNL     1      -0.418   2.247 -15.182  1.00  0.00     0.005 C 
ENDBRANCH  30  31
ENDBRANCH  29  30
ENDBRANCH  28  29
ENDBRANCH  27  28
ENDBRANCH   3  27
BRANCH   2  33
HETATM   33  O2  UNL     1       3.024   8.205 -14.235  1.00  0.00    -0.353 OA
HETATM   34  C7  UNL     1       2.704   9.594 -14.243  1.00  0.00     0.210 C 
ENDBRANCH   2  33
TORSDOF 9
ENDMDL
MODEL 2
REMARK VINA RESULT:      -7.6      2.178      3.266
REMARK  9 active torsions:
REMARK  status: ('A' for Active; 'I' for Inactive)
REMARK    1  A    between atoms: C2_2  and  O2_8 
REMARK    2  A    between atoms: C3_3  and  O1_7 
REMARK    3  A    between atoms: O1_7  and  C8_10 
REMARK    4  A    between atoms: C8_10  and  C9_11 
REMARK    5  A    between atoms: C9_11  and  C10_12 
REMARK    6  A    between atoms: C10_12  and  C11_13 
REMARK    7  A    between atoms: C14_17  and  C16_20 
REMARK       I    between atoms: C16_20  and  N2_21 
REMARK    8  A    between atoms: N2_21  and  C17_23 
REMARK    9  A    between atoms: C17_23  and  C18_24 
ROOT
HETATM    1  C1  UNL     1       3.325   5.005 -10.212  1.00  0.00     0.040 A 
HETATM    2  C2  UNL     1       2.719   5.585 -11.334  1.00  0.00     0.103 A 
HETATM    3  C3  UNL     1       1.715   4.868 -12.005  1.00  0.00     0.129 A 
HETATM    4  C4  UNL     1       1.366   3.578 -11.588  1.00  0.00     0.082 A 
HETATM    5  C5  UNL     1       1.976   3.003 -10.472  1.00  0.00    -0.005 A 
HETATM    6  C6  UNL     1       2.954   3.723  -9.782  1.00  0.00     0.017 A 
HETATM    7  N1  UNL     1       0.394   2.845 -12.284  1.00  0.00    -0.320 N 
HETATM    8  C13 UNL     1      -0.011   1.587 -11.929  1.00  0.00     0.261 A 
HETATM    9  C14 UNL     1       0.637   0.967 -10.732  1.00  0.00     0.100 A 
HETATM   10  C15 UNL     1       1.575   1.659 -10.058  1.00  0.00     0.036 A 
HETATM   11  O3  UNL     1      -0.878   0.999 -12.576  1.00  0.00    -0.267 OA
HETATM   12  H17 UNL     1      -0.027   3.262 -13.107  1.00  0.00     0.169 HD
ENDROOT
BRANCH   9  13
HETATM   13  C16 UNL     1       0.303  -0.403 -10.230  1.00  0.00     0.257 C 
HETATM   14  N2  UNL     1      -0.631  -0.457  -9.229  1.00  0.00    -0.352 N 
HETATM   15  H19 UNL     1      -0.985   0.417  -8.851  1.00  0.00     0.163 HD
HETATM   16  O4  UNL     1       0.842  -1.404 -10.689  1.00  0.00    -0.267 OA
BRANCH  14  17
HETATM   17  C17 UNL     1      -0.973  -1.679  -8.543  1.00  0.00     0.161 C 
BRANCH  17  18
HETATM   18  C18 UNL     1      -0.326  -1.732  -7.182  1.00  0.00    -0.038 A 
HETATM   19  C19 UNL     1       0.486  -0.661  -6.741  1.00  0.00     0.012 A 
HETATM   20  C20 UNL     1       1.076  -0.680  -5.473  1.00  0.00     0.040 A 
HETATM   21  C21 UNL     1       0.837  -1.772  -4.670  1.00  0.00     0.105 A 
HETATM   22  C22 UNL     1       0.042  -2.813  -5.085  1.00  0.00     0.105 A 
HETATM   23  O5  UNL     1       1.322  -1.955  -3.413  1.00  0.00    -0.323 OA
HETATM   24  C23 UNL     1      -0.559  -2.820  -6.327  1.00  0.00     0.048 A 
HETATM   25  O6  UNL     1      -0.066  -3.790  -4.142  1.00  0.00    -0.323 OA
HETATM   26  C24 UNL     1       0.752  -3.241  -3.089  1.00  0.00     0.352 A 
ENDBRANCH  17  18
ENDBRANCH  14  17
ENDBRANCH   9  13
BRANCH   3  27
HETATM   27  O1  UNL     1       1.110   5.381 -13.128  1.00  0.00    -0.346 OA
BRANCH  27  28
HETATM   28  C8  UNL     1       1.979   5.303 -14.259  1.00  0.00     0.176 C 
BRANCH  28  29
HETATM   29  C9  UNL     1       1.170   4.918 -15.497  1.00  0.00     0.027 C 
BRANCH  29  30
HETATM   30  C10 UNL     1       1.709   3.657 -16.184  1.00  0.00     0.002 C 
BRANCH  30  31
HETATM   31  C11 UNL     1       0.777   2.453 -16.040  1.00  0.00    -0.004 C 
HETATM   32  C12 UNL     1      -0.641   2.831 -15.650  1.00  0.00     0.005 C 
ENDBRANCH  30  31
ENDBRANCH  29  30
ENDBRANCH  28  29
ENDBRANCH  27  28
ENDBRANCH   3  27
BRANCH   2  33
HETATM   33  O2  UNL     1       3.015   6.830 -11.826  1.00  0.00    -0.353 OA
HETATM   34  C7  UNL     1       2.539   7.944 -11.077  1.00  0.00     0.210 C 
ENDBRANCH   2  33
TORSDOF 9
ENDMDL
