MODEL 1
REMARK VINA RESULT:      -6.6      0.000      0.000
REMARK  15 active torsions:
REMARK  status: ('A' for Active; 'I' for Inactive)
REMARK    1  A    between atoms: C2_2  and  O2_13 
REMARK    2  A    between atoms: C3_3  and  C12_14 
REMARK    3  A    between atoms: C4_4  and  C6_6 
REMARK    4  A    between atoms: C6_6  and  C7_7 
REMARK    5  A    between atoms: C8_8  and  C9_9 
REMARK    6  A    between atoms: C9_9  and  C10_10 
REMARK    7  A    between atoms: C10_10  and  C11_11 
REMARK    8  A    between atoms: C11_11  and  C20_23 
REMARK    9  A    between atoms: C13_15  and  C14_16 
REMARK   10  A    between atoms: C14_16  and  C15_17 
REMARK   11  A    between atoms: C14_16  and  O3_22 
REMARK   12  A    between atoms: C15_17  and  C16_18 
REMARK   13  A    between atoms: C16_18  and  C17_19 
REMARK   14  A    between atoms: C17_19  and  C18_20 
REMARK   15  A    between atoms: C20_23  and  O5_25 
ROOT
HETATM    1  C1  UNL     1      -3.449  11.289 -23.040  1.00  0.00     0.111 C 
HETATM    2  C2  UNL     1      -4.423  10.403 -22.279  1.00  0.00     0.133 C 
HETATM    3  C3  UNL     1      -5.756  10.451 -23.057  1.00  0.00     0.048 C 
HETATM    4  C4  UNL     1      -5.375  10.671 -24.539  1.00  0.00     0.069 C 
HETATM    5  C5  UNL     1      -3.965  11.205 -24.449  1.00  0.00     0.134 C 
HETATM    6  O1  UNL     1      -3.320  11.588 -25.421  1.00  0.00    -0.297 OA
ENDROOT
BRANCH   3   7
HETATM    7  C12 UNL     1      -6.654  11.511 -22.434  1.00  0.00    -0.020 C 
HETATM    8  C13 UNL     1      -7.643  11.341 -21.541  1.00  0.00     0.001 C 
BRANCH   8   9
HETATM    9  C14 UNL     1      -8.482  12.467 -20.999  1.00  0.00     0.140 C 
BRANCH   9  10
HETATM   10  C15 UNL     1      -8.737  12.356 -19.490  1.00  0.00     0.036 C 
BRANCH  10  11
HETATM   11  C16 UNL     1     -10.048  13.018 -19.051  1.00  0.00     0.003 C 
BRANCH  11  12
HETATM   12  C17 UNL     1     -10.794  12.231 -17.969  1.00  0.00    -0.000 C 
BRANCH  12  13
HETATM   13  C18 UNL     1     -11.718  13.098 -17.113  1.00  0.00    -0.005 C 
HETATM   14  C19 UNL     1     -11.552  14.574 -17.440  1.00  0.00     0.005 C 
ENDBRANCH  12  13
ENDBRANCH  11  12
ENDBRANCH  10  11
ENDBRANCH   9  10
BRANCH   9  15
HETATM   15  O3  UNL     1      -7.786  13.682 -21.258  1.00  0.00    -0.392 OA
HETATM   16  H31 UNL     1      -7.647  13.748 -22.218  1.00  0.00     0.210 HD
ENDBRANCH   9  15
ENDBRANCH   8   9
ENDBRANCH   3   7
BRANCH   2  17
HETATM   17  O2  UNL     1      -3.930   9.069 -22.211  1.00  0.00    -0.394 OA
HETATM   18  H16 UNL     1      -3.649   8.803 -23.103  1.00  0.00     0.210 HD
ENDBRANCH   2  17
BRANCH   4  19
HETATM   19  C6  UNL     1      -5.481   9.445 -25.457  1.00  0.00     0.040 C 
BRANCH  19  20
HETATM   20  C7  UNL     1      -6.586   9.455 -26.475  1.00  0.00    -0.030 C 
HETATM   21  C8  UNL     1      -7.903   9.294 -26.258  1.00  0.00    -0.031 C 
BRANCH  21  22
HETATM   22  C9  UNL     1      -8.591   9.015 -24.953  1.00  0.00     0.027 C 
BRANCH  22  23
HETATM   23  C10 UNL     1      -9.351  10.231 -24.408  1.00  0.00     0.014 C 
BRANCH  23  24
HETATM   24  C11 UNL     1      -9.213  11.497 -25.257  1.00  0.00     0.110 C 
BRANCH  24  25
HETATM   25  C20 UNL     1      -9.741  12.725 -24.566  1.00  0.00     0.139 C 
HETATM   26  O4  UNL     1     -10.902  12.990 -24.304  1.00  0.00    -0.650 OA
BRANCH  25  27
HETATM   27  O5  UNL     1      -8.758  13.595 -24.263  1.00  0.00    -0.776 OA
HETATM   28  H32 UNL     1      -8.939  14.367 -24.838  1.00  0.00     0.167 HD
ENDBRANCH  25  27
ENDBRANCH  24  25
ENDBRANCH  23  24
ENDBRANCH  22  23
ENDBRANCH  21  22
ENDBRANCH  19  20
ENDBRANCH   4  19
TORSDOF 15
ENDMDL
MODEL 2
REMARK VINA RESULT:      -6.5     13.677     16.954
REMARK  15 active torsions:
REMARK  status: ('A' for Active; 'I' for Inactive)
REMARK    1  A    between atoms: C2_2  and  O2_13 
REMARK    2  A    between atoms: C3_3  and  C12_14 
REMARK    3  A    between atoms: C4_4  and  C6_6 
REMARK    4  A    between atoms: C6_6  and  C7_7 
REMARK    5  A    between atoms: C8_8  and  C9_9 
REMARK    6  A    between atoms: C9_9  and  C10_10 
REMARK    7  A    between atoms: C10_10  and  C11_11 
REMARK    8  A    between atoms: C11_11  and  C20_23 
REMARK    9  A    between atoms: C13_15  and  C14_16 
REMARK   10  A    between atoms: C14_16  and  C15_17 
REMARK   11  A    between atoms: C14_16  and  O3_22 
REMARK   12  A    between atoms: C15_17  and  C16_18 
REMARK   13  A    between atoms: C16_18  and  C17_19 
REMARK   14  A    between atoms: C17_19  and  C18_20 
REMARK   15  A    between atoms: C20_23  and  O5_25 
ROOT
HETATM    1  C1  UNL     1      -1.741  -1.142 -11.874  1.00  0.00     0.111 C 
HETATM    2  C2  UNL     1      -0.409  -0.450 -12.114  1.00  0.00     0.133 C 
HETATM    3  C3  UNL     1      -0.689   1.068 -12.065  1.00  0.00     0.048 C 
HETATM    4  C4  UNL     1      -1.878   1.248 -11.093  1.00  0.00     0.069 C 
HETATM    5  C5  UNL     1      -2.486  -0.134 -11.045  1.00  0.00     0.134 C 
HETATM    6  O1  UNL     1      -3.519  -0.401 -10.438  1.00  0.00    -0.297 OA
ENDROOT
BRANCH   3   7
HETATM    7  C12 UNL     1      -0.902   1.577 -13.483  1.00  0.00    -0.020 C 
HETATM    8  C13 UNL     1      -0.174   2.482 -14.159  1.00  0.00     0.001 C 
BRANCH   8   9
HETATM    9  C14 UNL     1      -0.485   2.925 -15.563  1.00  0.00     0.140 C 
BRANCH   9  10
HETATM   10  C15 UNL     1       0.001   4.348 -15.867  1.00  0.00     0.036 C 
BRANCH  10  11
HETATM   11  C16 UNL     1       1.162   4.792 -14.971  1.00  0.00     0.003 C 
BRANCH  11  12
HETATM   12  C17 UNL     1       0.899   6.115 -14.245  1.00  0.00    -0.000 C 
BRANCH  12  13
HETATM   13  C18 UNL     1       2.171   6.794 -13.736  1.00  0.00    -0.005 C 
HETATM   14  C19 UNL     1       2.222   8.257 -14.151  1.00  0.00     0.005 C 
ENDBRANCH  12  13
ENDBRANCH  11  12
ENDBRANCH  10  11
ENDBRANCH   9  10
BRANCH   9  15
HETATM   15  O3  UNL     1       0.161   2.019 -16.451  1.00  0.00    -0.392 OA
HETATM   16  H31 UNL     1      -0.194   2.171 -17.343  1.00  0.00     0.210 HD
ENDBRANCH   9  15
ENDBRANCH   8   9
ENDBRANCH   3   7
BRANCH   2  17
HETATM   17  O2  UNL     1       0.530  -0.819 -11.110  1.00  0.00    -0.394 OA
HETATM   18  H16 UNL     1       1.057  -0.033 -10.883  1.00  0.00     0.210 HD
ENDBRANCH   2  17
BRANCH   4  19
HETATM   19  C6  UNL     1      -1.540   1.789  -9.698  1.00  0.00     0.040 C 
BRANCH  19  20
HETATM   20  C7  UNL     1      -2.017   3.177  -9.377  1.00  0.00    -0.030 C 
HETATM   21  C8  UNL     1      -1.672   4.325  -9.985  1.00  0.00    -0.031 C 
BRANCH  21  22
HETATM   22  C9  UNL     1      -0.687   4.511 -11.104  1.00  0.00     0.027 C 
BRANCH  22  23
HETATM   23  C10 UNL     1       0.752   4.695 -10.606  1.00  0.00     0.014 C 
BRANCH  23  24
HETATM   24  C11 UNL     1       1.780   3.792 -11.292  1.00  0.00     0.110 C 
BRANCH  24  25
HETATM   25  C20 UNL     1       2.386   2.781 -10.358  1.00  0.00     0.139 C 
HETATM   26  O4  UNL     1       1.850   1.796  -9.879  1.00  0.00    -0.650 OA
BRANCH  25  27
HETATM   27  O5  UNL     1       3.657   3.089 -10.036  1.00  0.00    -0.776 OA
HETATM   28  H32 UNL     1       4.056   3.371 -10.886  1.00  0.00     0.167 HD
ENDBRANCH  25  27
ENDBRANCH  24  25
ENDBRANCH  23  24
ENDBRANCH  22  23
ENDBRANCH  21  22
ENDBRANCH  19  20
ENDBRANCH   4  19
TORSDOF 15
ENDMDL
