MODEL 1
REMARK VINA RESULT:      -6.5      0.000      0.000
REMARK  16 active torsions:
REMARK  status: ('A' for Active; 'I' for Inactive)
REMARK    1  A    between atoms: C1_1  and  C2_2 
REMARK    2  A    between atoms: C1_1  and  C5_5 
REMARK    3  A    between atoms: C2_2  and  C3_3 
REMARK    4  A    between atoms: C3_3  and  C4_4 
REMARK    5  A    between atoms: C4_4  and  C16_16 
REMARK    6  A    between atoms: C6_6  and  C7_7 
REMARK    7  A    between atoms: C7_7  and  C8_8 
REMARK    8  A    between atoms: C8_8  and  C9_9 
REMARK    9  A    between atoms: C9_9  and  C10_10 
REMARK   10  A    between atoms: C10_10  and  C11_11 
REMARK   11  A    between atoms: C11_11  and  C12_12 
REMARK   12  A    between atoms: C12_12  and  C13_13 
REMARK   13  A    between atoms: C13_13  and  C14_14 
REMARK   14  A    between atoms: C14_14  and  C15_15 
REMARK   15  A    between atoms: C16_16  and  C17_17 
REMARK   16  A    between atoms: C17_17  and  C18_18 
ROOT
HETATM    1  C10 UNL     1       1.930   4.490 -14.743  1.00  0.00     0.000 C 
ENDROOT
BRANCH   1   2
HETATM    2  C9  UNL     1       1.531   3.818 -16.059  1.00  0.00     0.000 C 
BRANCH   2   3
HETATM    3  C8  UNL     1       0.988   2.395 -15.891  1.00  0.00     0.004 C 
BRANCH   3   4
HETATM    4  C7  UNL     1      -0.529   2.367 -15.672  1.00  0.00     0.027 C 
BRANCH   4   5
HETATM    5  C6  UNL     1      -0.942   3.052 -14.401  1.00  0.00    -0.031 C 
HETATM    6  C5  UNL     1      -1.032   2.523 -13.170  1.00  0.00    -0.031 C 
BRANCH   6   7
HETATM    7  C1  UNL     1      -0.738   1.111 -12.745  1.00  0.00     0.027 C 
BRANCH   7   8
HETATM    8  C2  UNL     1       0.216   1.017 -11.553  1.00  0.00     0.004 C 
BRANCH   8   9
HETATM    9  C3  UNL     1       0.677   2.339 -10.927  1.00  0.00     0.000 C 
BRANCH   9  10
HETATM   10  C4  UNL     1       0.120   2.611  -9.523  1.00  0.00     0.000 C 
BRANCH  10  11
HETATM   11  C16 UNL     1      -0.477   4.012  -9.364  1.00  0.00     0.000 C 
BRANCH  11  12
HETATM   12  C17 UNL     1      -1.944   4.039  -9.800  1.00  0.00    -0.000 C 
BRANCH  12  13
HETATM   13  C18 UNL     1      -2.456   5.448 -10.110  1.00  0.00    -0.005 C 
HETATM   14  C19 UNL     1      -1.349   6.488 -10.195  1.00  0.00     0.005 C 
ENDBRANCH  12  13
ENDBRANCH  11  12
ENDBRANCH  10  11
ENDBRANCH   9  10
ENDBRANCH   8   9
ENDBRANCH   7   8
ENDBRANCH   6   7
ENDBRANCH   4   5
ENDBRANCH   3   4
ENDBRANCH   2   3
ENDBRANCH   1   2
BRANCH   1  15
HETATM   15  C11 UNL     1       1.721   6.006 -14.683  1.00  0.00     0.000 C 
BRANCH  15  16
HETATM   16  C12 UNL     1       0.743   6.513 -13.613  1.00  0.00     0.008 C 
BRANCH  16  17
HETATM   17  C13 UNL     1       1.112   7.882 -13.033  1.00  0.00     0.088 C 
BRANCH  17  18
HETATM   18  C14 UNL     1       2.458   7.893 -12.313  1.00  0.00     0.202 C 
HETATM   19  O1  UNL     1       3.397   8.542 -12.781  1.00  0.00    -0.289 OA
BRANCH  18  20
HETATM   20  C15 UNL     1       2.537   7.159 -11.056  1.00  0.00     0.219 A 
HETATM   21  N2  UNL     1       2.116   7.600  -9.879  1.00  0.00    -0.199 NA
HETATM   22  C20 UNL     1       2.387   6.565  -9.034  1.00  0.00     0.186 A 
HETATM   23  C21 UNL     1       2.971   5.518  -9.730  1.00  0.00     0.125 A 
HETATM   24  N1  UNL     1       2.135   6.519  -7.706  1.00  0.00    -0.239 NA
HETATM   25  C22 UNL     1       3.355   4.327  -9.135  1.00  0.00     0.043 A 
HETATM   26  O2  UNL     1       3.075   5.890 -11.036  1.00  0.00    -0.285 OA
HETATM   27  C23 UNL     1       3.099   4.266  -7.763  1.00  0.00     0.022 A 
HETATM   28  C24 UNL     1       2.507   5.355  -7.119  1.00  0.00     0.119 A 
ENDBRANCH  18  20
ENDBRANCH  17  18
ENDBRANCH  16  17
ENDBRANCH  15  16
ENDBRANCH   1  15
TORSDOF 16
ENDMDL
MODEL 2
REMARK VINA RESULT:      -6.4      2.597      4.970
REMARK  16 active torsions:
REMARK  status: ('A' for Active; 'I' for Inactive)
REMARK    1  A    between atoms: C1_1  and  C2_2 
REMARK    2  A    between atoms: C1_1  and  C5_5 
REMARK    3  A    between atoms: C2_2  and  C3_3 
REMARK    4  A    between atoms: C3_3  and  C4_4 
REMARK    5  A    between atoms: C4_4  and  C16_16 
REMARK    6  A    between atoms: C6_6  and  C7_7 
REMARK    7  A    between atoms: C7_7  and  C8_8 
REMARK    8  A    between atoms: C8_8  and  C9_9 
REMARK    9  A    between atoms: C9_9  and  C10_10 
REMARK   10  A    between atoms: C10_10  and  C11_11 
REMARK   11  A    between atoms: C11_11  and  C12_12 
REMARK   12  A    between atoms: C12_12  and  C13_13 
REMARK   13  A    between atoms: C13_13  and  C14_14 
REMARK   14  A    between atoms: C14_14  and  C15_15 
REMARK   15  A    between atoms: C16_16  and  C17_17 
REMARK   16  A    between atoms: C17_17  and  C18_18 
ROOT
HETATM    1  C10 UNL     1      -0.289   2.146 -13.543  1.00  0.00     0.000 C 
ENDROOT
BRANCH   1   2
HETATM    2  C9  UNL     1      -0.559   2.096 -15.049  1.00  0.00     0.000 C 
BRANCH   2   3
HETATM    3  C8  UNL     1      -0.640   3.476 -15.711  1.00  0.00     0.004 C 
BRANCH   3   4
HETATM    4  C7  UNL     1       0.645   3.843 -16.462  1.00  0.00     0.027 C 
BRANCH   4   5
HETATM    5  C6  UNL     1       1.796   4.119 -15.537  1.00  0.00    -0.031 C 
HETATM    6  C5  UNL     1       1.924   5.124 -14.657  1.00  0.00    -0.031 C 
BRANCH   6   7
HETATM    7  C1  UNL     1       0.950   6.230 -14.366  1.00  0.00     0.027 C 
BRANCH   7   8
HETATM    8  C2  UNL     1       0.829   6.564 -12.877  1.00  0.00     0.004 C 
BRANCH   8   9
HETATM    9  C3  UNL     1       0.495   5.404 -11.932  1.00  0.00     0.000 C 
BRANCH   9  10
HETATM   10  C4  UNL     1      -0.040   5.832 -10.558  1.00  0.00     0.000 C 
BRANCH  10  11
HETATM   11  C16 UNL     1      -1.522   6.210 -10.571  1.00  0.00     0.000 C 
BRANCH  11  12
HETATM   12  C17 UNL     1      -2.339   5.271  -9.680  1.00  0.00    -0.000 C 
BRANCH  12  13
HETATM   13  C18 UNL     1      -1.577   4.005  -9.279  1.00  0.00    -0.005 C 
HETATM   14  C19 UNL     1      -2.262   3.210  -8.178  1.00  0.00     0.005 C 
ENDBRANCH  12  13
ENDBRANCH  11  12
ENDBRANCH  10  11
ENDBRANCH   9  10
ENDBRANCH   8   9
ENDBRANCH   7   8
ENDBRANCH   6   7
ENDBRANCH   4   5
ENDBRANCH   3   4
ENDBRANCH   2   3
ENDBRANCH   1   2
BRANCH   1  15
HETATM   15  C11 UNL     1      -1.530   2.239 -12.650  1.00  0.00     0.000 C 
BRANCH  15  16
HETATM   16  C12 UNL     1      -1.677   1.150 -11.577  1.00  0.00     0.008 C 
BRANCH  16  17
HETATM   17  C13 UNL     1      -1.034  -0.187 -11.958  1.00  0.00     0.088 C 
BRANCH  17  18
HETATM   18  C14 UNL     1       0.178  -0.543 -11.101  1.00  0.00     0.202 C 
HETATM   19  O1  UNL     1       0.724  -1.641 -11.240  1.00  0.00    -0.289 OA
BRANCH  18  20
HETATM   20  C15 UNL     1       0.659   0.482 -10.184  1.00  0.00     0.219 A 
HETATM   21  N2  UNL     1       0.441   0.509  -8.876  1.00  0.00    -0.199 NA
HETATM   22  C20 UNL     1       1.096   1.633  -8.466  1.00  0.00     0.186 A 
HETATM   23  C21 UNL     1       1.697   2.259  -9.547  1.00  0.00     0.125 A 
HETATM   24  N1  UNL     1       1.180   2.102  -7.200  1.00  0.00    -0.239 NA
HETATM   25  C22 UNL     1       2.437   3.425  -9.437  1.00  0.00     0.043 A 
HETATM   26  O2  UNL     1       1.420   1.527 -10.661  1.00  0.00    -0.285 OA
HETATM   27  C23 UNL     1       2.532   3.920  -8.134  1.00  0.00     0.022 A 
HETATM   28  C24 UNL     1       1.906   3.242  -7.087  1.00  0.00     0.119 A 
ENDBRANCH  18  20
ENDBRANCH  17  18
ENDBRANCH  16  17
ENDBRANCH  15  16
ENDBRANCH   1  15
TORSDOF 16
ENDMDL
