MODEL 1
REMARK VINA RESULT:      -7.5      0.000      0.000
REMARK  FOSTAMATINIB
REMARK  12 active torsions:
REMARK  status: ('A' for Active; 'I' for Inactive)
REMARK    1  A    between atoms: P_1  and  O_5 
REMARK    2  A    between atoms: P_1  and  O_6 
REMARK    3  A    between atoms: P_1  and  O_7 
REMARK    4  A    between atoms: O_5  and  C_24 
REMARK    5  A    between atoms: O_9  and  C_34 
REMARK    6  A    between atoms: O_10  and  C_35 
REMARK    7  A    between atoms: O_11  and  C_36 
REMARK    8  A    between atoms: N_12  and  C_24 
REMARK    9  A    between atoms: N_14  and  C_26 
REMARK   10  A    between atoms: N_14  and  C_28 
REMARK   11  A    between atoms: N_16  and  C_30 
REMARK   12  A    between atoms: N_16  and  C_31 
ROOT
ATOM      1  P           0       1.374   2.829  -8.289  0.00  0.00     0.393 P 
ATOM      2  O           0       2.117   3.611  -7.246  0.00  0.00    -0.631 OA
ENDROOT
BRANCH   1   3
ATOM      3  O           0       1.354   3.483  -9.768  0.00  0.00    -0.254 OA
BRANCH   3   4
ATOM      4  C           0       2.005   2.791 -10.818  0.00  0.00     0.269 C 
BRANCH   4   5
ATOM      5  N           0       1.012   2.405 -11.815  0.00  0.00    -0.254 N 
ATOM      6  C           0       0.291   1.224 -11.685  0.00  0.00     0.265 C 
ATOM      7  O           0       0.480   0.392 -10.797  0.00  0.00    -0.269 OA
ATOM      8  C           0      -0.863   1.071 -12.689  0.00  0.00     0.169 C 
ATOM      9  O           0      -0.632   1.624 -13.980  0.00  0.00    -0.324 OA
ATOM     10  C           0      -1.132  -0.422 -12.921  0.00  0.00     0.040 C 
ATOM     11  C           0      -2.124   1.715 -12.091  0.00  0.00     0.040 C 
ATOM     12  C           0       0.039   2.808 -13.989  0.00  0.00     0.129 A 
ATOM     13  C           0       0.850   3.244 -12.950  0.00  0.00     0.172 A 
ATOM     14  C           0      -0.072   3.591 -15.136  0.00  0.00     0.030 A 
ATOM     15  N           0       1.526   4.420 -13.017  0.00  0.00    -0.209 NA
ATOM     16  C           0       1.385   5.166 -14.135  0.00  0.00     0.143 A 
ATOM     17  C           0       0.606   4.798 -15.215  0.00  0.00     0.039 A 
BRANCH  16  18
ATOM     18  N           0       2.067   6.405 -14.217  0.00  0.00    -0.322 N 
ATOM     19  H           0       2.482   6.588 -15.127  0.00  0.00     0.169 HD
BRANCH  18  20
ATOM     20  C           0       2.312   7.415 -13.274  0.00  0.00     0.190 A 
ATOM     21  N           0       2.434   7.075 -11.974  0.00  0.00    -0.042 NA
ATOM     22  C           0       2.670   8.102 -11.136  0.00  0.00     0.729 A 
ATOM     23  N           0       2.790   9.402 -11.464  0.00  0.00    -0.057 NA
ATOM     24  C           0       2.657   9.673 -12.779  0.00  0.00     0.151 A 
ATOM     25  C           0       2.415   8.711 -13.739  0.00  0.00     0.194 A 
ATOM     26  F           0       2.290   9.028 -15.032  0.00  0.00    -0.199 F 
BRANCH  22  27
ATOM     27  N           0       2.804   7.781  -9.768  0.00  0.00    -0.186 N 
ATOM     28  H           0       3.775   7.757  -9.470  0.00  0.00     0.184 HD
BRANCH  27  29
ATOM     29  C           0       1.882   7.349  -8.795  0.00  0.00     0.077 A 
ATOM     30  C           0       0.665   6.794  -9.188  0.00  0.00     0.044 A 
ATOM     31  C           0      -0.249   6.366  -8.225  0.00  0.00     0.120 A 
ATOM     32  C           0       0.055   6.494  -6.869  0.00  0.00     0.139 A 
ATOM     33  C           0       1.272   7.050  -6.478  0.00  0.00     0.120 A 
ATOM     34  C           0       2.187   7.478  -7.441  0.00  0.00     0.044 A 
BRANCH  31  35
ATOM     35  O           0      -1.435   5.826  -8.621  0.00  0.00    -0.326 OA
ATOM     36  C           0      -1.481   5.251  -9.925  0.00  0.00     0.181 C 
ENDBRANCH  31  35
BRANCH  32  37
ATOM     37  O           0      -0.839   6.078  -5.928  0.00  0.00    -0.324 OA
ATOM     38  C           0      -0.680   4.752  -5.427  0.00  0.00     0.182 C 
ENDBRANCH  32  37
BRANCH  33  39
ATOM     39  O           0       1.581   7.182  -5.157  0.00  0.00    -0.326 OA
ATOM     40  C           0       2.665   6.396  -4.663  0.00  0.00     0.181 C 
ENDBRANCH  33  39
ENDBRANCH  27  29
ENDBRANCH  22  27
ENDBRANCH  18  20
ENDBRANCH  16  18
ENDBRANCH   4   5
ENDBRANCH   3   4
ENDBRANCH   1   3
BRANCH   1  41
ATOM     41  O           0       1.934   1.335  -8.550  0.00  0.00    -0.307 OA
ATOM     42  H           0       2.491   0.910  -7.864  0.00  0.00     0.222 HD
ENDBRANCH   1  41
BRANCH   1  43
ATOM     43  O           0      -0.190   2.580  -7.959  0.00  0.00    -0.307 OA
ATOM     44  H           0      -0.808   3.341  -7.982  0.00  0.00     0.222 HD
ENDBRANCH   1  43
TORSDOF 12
ENDMDL
MODEL 2
REMARK VINA RESULT:      -7.5      4.256      6.575
REMARK  FOSTAMATINIB
REMARK  12 active torsions:
REMARK  status: ('A' for Active; 'I' for Inactive)
REMARK    1  A    between atoms: P_1  and  O_5 
REMARK    2  A    between atoms: P_1  and  O_6 
REMARK    3  A    between atoms: P_1  and  O_7 
REMARK    4  A    between atoms: O_5  and  C_24 
REMARK    5  A    between atoms: O_9  and  C_34 
REMARK    6  A    between atoms: O_10  and  C_35 
REMARK    7  A    between atoms: O_11  and  C_36 
REMARK    8  A    between atoms: N_12  and  C_24 
REMARK    9  A    between atoms: N_14  and  C_26 
REMARK   10  A    between atoms: N_14  and  C_28 
REMARK   11  A    between atoms: N_16  and  C_30 
REMARK   12  A    between atoms: N_16  and  C_31 
ROOT
ATOM      1  P           0      -0.920  -0.729 -12.475  0.00  0.00     0.393 P 
ATOM      2  O           0      -2.303  -0.897 -11.917  0.00  0.00    -0.631 OA
ENDROOT
BRANCH   1   3
ATOM      3  O           0      -0.266   0.738 -12.283  0.00  0.00    -0.254 OA
BRANCH   3   4
ATOM      4  C           0      -1.026   1.869 -12.665  0.00  0.00     0.269 C 
BRANCH   4   5
ATOM      5  N           0      -0.154   2.814 -13.354  0.00  0.00    -0.254 N 
ATOM      6  C           0       0.263   2.580 -14.660  0.00  0.00     0.265 C 
ATOM      7  O           0       0.011   1.555 -15.294  0.00  0.00    -0.269 OA
ATOM      8  C           0       0.989   3.766 -15.315  0.00  0.00     0.169 C 
ATOM      9  O           0       1.791   4.554 -14.444  0.00  0.00    -0.324 OA
ATOM     10  C           0       1.946   3.236 -16.391  0.00  0.00     0.040 C 
ATOM     11  C           0      -0.056   4.673 -15.985  0.00  0.00     0.040 C 
ATOM     12  C           0       1.266   4.762 -13.206  0.00  0.00     0.129 A 
ATOM     13  C           0       0.302   3.947 -12.629  0.00  0.00     0.172 A 
ATOM     14  C           0       1.771   5.837 -12.476  0.00  0.00     0.030 A 
ATOM     15  N           0      -0.170   4.177 -11.377  0.00  0.00    -0.209 NA
ATOM     16  C           0       0.325   5.236 -10.699  0.00  0.00     0.143 A 
ATOM     17  C           0       1.291   6.088 -11.199  0.00  0.00     0.039 A 
BRANCH  16  18
ATOM     18  N           0      -0.168   5.504  -9.399  0.00  0.00    -0.322 N 
ATOM     19  H           0      -0.101   6.481  -9.124  0.00  0.00     0.169 HD
BRANCH  18  20
ATOM     20  C           0      -0.702   4.676  -8.399  0.00  0.00     0.190 A 
ATOM     21  N           0       0.135   3.888  -7.693  0.00  0.00    -0.042 NA
ATOM     22  C           0      -0.456   3.126  -6.754  0.00  0.00     0.729 A 
ATOM     23  N           0      -1.769   3.076  -6.461  0.00  0.00    -0.057 NA
ATOM     24  C           0      -2.550   3.888  -7.205  0.00  0.00     0.151 A 
ATOM     25  C           0      -2.067   4.717  -8.197  0.00  0.00     0.194 A 
ATOM     26  F           0      -2.881   5.505  -8.908  0.00  0.00    -0.199 F 
BRANCH  22  27
ATOM     27  N           0       0.391   2.289  -5.994  0.00  0.00    -0.186 N 
ATOM     28  H           0       1.189   2.790  -5.613  0.00  0.00     0.184 HD
BRANCH  27  29
ATOM     29  C           0       0.425   0.897  -5.795  0.00  0.00     0.077 A 
ATOM     30  C           0       0.140   0.034  -6.854  0.00  0.00     0.044 A 
ATOM     31  C           0       0.172  -1.347  -6.656  0.00  0.00     0.120 A 
ATOM     32  C           0       0.490  -1.864  -5.400  0.00  0.00     0.139 A 
ATOM     33  C           0       0.774  -1.001  -4.342  0.00  0.00     0.120 A 
ATOM     34  C           0       0.742   0.380  -4.539  0.00  0.00     0.044 A 
BRANCH  31  35
ATOM     35  O           0      -0.109  -2.178  -7.698  0.00  0.00    -0.326 OA
ATOM     36  C           0      -1.479  -2.312  -8.068  0.00  0.00     0.181 C 
ENDBRANCH  31  35
BRANCH  32  37
ATOM     37  O           0       0.520  -3.213  -5.207  0.00  0.00    -0.324 OA
ATOM     38  C           0      -0.672  -3.823  -4.715  0.00  0.00     0.182 C 
ENDBRANCH  32  37
BRANCH  33  39
ATOM     39  O           0       1.085  -1.494  -3.111  0.00  0.00    -0.326 OA
ATOM     40  C           0       0.184  -1.193  -2.046  0.00  0.00     0.181 C 
ENDBRANCH  33  39
ENDBRANCH  27  29
ENDBRANCH  22  27
ENDBRANCH  18  20
ENDBRANCH  16  18
ENDBRANCH   4   5
ENDBRANCH   3   4
ENDBRANCH   1   3
BRANCH   1  41
ATOM     41  O           0       0.194  -1.718 -11.847  0.00  0.00    -0.307 OA
ATOM     42  H           0       0.761  -1.392 -11.116  0.00  0.00     0.222 HD
ENDBRANCH   1  41
BRANCH   1  43
ATOM     43  O           0      -0.795  -1.001 -14.065  0.00  0.00    -0.307 OA
ATOM     44  H           0       0.027  -0.735 -14.529  0.00  0.00     0.222 HD
ENDBRANCH   1  43
TORSDOF 12
ENDMDL
