MODEL 1
REMARK VINA RESULT:      -7.6      0.000      0.000
REMARK  11 active torsions:
REMARK  status: ('A' for Active; 'I' for Inactive)
REMARK    1  A    between atoms: C1_1  and  C2_2 
REMARK       I    between atoms: C1_1  and  N1_4 
REMARK    2  A    between atoms: N1_4  and  C11_15 
REMARK    3  A    between atoms: N3_6  and  C9_13 
REMARK    4  A    between atoms: C9_13  and  C10_14 
REMARK    5  A    between atoms: C10_14  and  C15_21 
REMARK    6  A    between atoms: C11_15  and  C12_16 
REMARK    7  A    between atoms: C11_15  and  C13_17 
REMARK       I    between atoms: C13_17  and  N4_18 
REMARK    8  A    between atoms: C15_21  and  C16_22 
REMARK    9  A    between atoms: C16_22  and  C17_23 
REMARK   10  A    between atoms: C17_23  and  C20_26 
REMARK   11  A    between atoms: C20_26  and  O3_27 
ROOT
HETATM    1  C2  UNL     1       0.605   3.362 -12.452  1.00  0.00     0.157 A 
HETATM    2  N2  UNL     1       0.584   4.650 -12.059  1.00  0.00    -0.166 NA
HETATM    3  N3  UNL     1       0.693   5.353 -13.199  1.00  0.00    -0.268 N 
HETATM    4  C3  UNL     1       0.761   4.583 -14.331  1.00  0.00     0.065 A 
HETATM    5  C4  UNL     1       0.695   3.268 -13.879  1.00  0.00     0.028 A 
HETATM    6  C5  UNL     1       0.860   4.913 -15.692  1.00  0.00     0.032 A 
HETATM    7  C6  UNL     1       0.890   3.862 -16.612  1.00  0.00     0.002 A 
HETATM    8  C7  UNL     1       0.813   2.537 -16.191  1.00  0.00     0.001 A 
HETATM    9  C8  UNL     1       0.712   2.225 -14.831  1.00  0.00     0.016 A 
ENDROOT
BRANCH   1  10
HETATM   10  C1  UNL     1       0.536   2.272 -11.463  1.00  0.00     0.273 C 
HETATM   11  O1  UNL     1       1.319   2.159 -10.521  1.00  0.00    -0.266 OA
HETATM   12  N1  UNL     1      -0.464   1.339 -11.694  1.00  0.00    -0.342 N 
HETATM   13  H1  UNL     1      -0.754   1.267 -12.663  1.00  0.00     0.163 HD
BRANCH  12  14
HETATM   14  C11 UNL     1      -0.468   0.084 -10.945  1.00  0.00     0.184 C 
BRANCH  14  15
HETATM   15  C12 UNL     1      -1.861  -0.238 -10.322  1.00  0.00    -0.022 C 
HETATM   16  C14 UNL     1      -2.914  -0.305 -11.449  1.00  0.00     0.017 C 
HETATM   17  C18 UNL     1      -1.879  -1.576  -9.562  1.00  0.00     0.017 C 
HETATM   18  C19 UNL     1      -2.281   0.884  -9.350  1.00  0.00     0.017 C 
ENDBRANCH  14  15
BRANCH  14  19
HETATM   19  C13 UNL     1       0.023  -0.992 -11.936  1.00  0.00     0.239 C 
HETATM   20  N4  UNL     1      -0.417  -0.866 -13.224  1.00  0.00    -0.368 N 
HETATM   21  H11 UNL     1      -0.195  -1.654 -13.823  1.00  0.00     0.159 HD
HETATM   22  H12 UNL     1      -1.319  -0.435 -13.391  1.00  0.00     0.159 HD
HETATM   23  O2  UNL     1       0.778  -1.909 -11.618  1.00  0.00    -0.271 OA
ENDBRANCH  14  19
ENDBRANCH  12  14
ENDBRANCH   1  10
BRANCH   3  24
HETATM   24  C9  UNL     1       0.708   6.804 -13.125  1.00  0.00     0.151 C 
BRANCH  24  25
HETATM   25  C10 UNL     1       2.113   7.371 -13.324  1.00  0.00     0.022 C 
BRANCH  25  26
HETATM   26  C15 UNL     1       2.172   8.284 -14.550  1.00  0.00     0.002 C 
BRANCH  26  27
HETATM   27  C16 UNL     1       2.930   9.589 -14.283  1.00  0.00     0.002 C 
BRANCH  27  28
HETATM   28  C17 UNL     1       2.090  10.688 -13.628  1.00  0.00     0.026 C 
BRANCH  28  29
HETATM   29  C20 UNL     1       2.488  11.027 -12.199  1.00  0.00     0.164 C 
BRANCH  29  30
HETATM   30  O3  UNL     1       3.513  10.139 -11.772  1.00  0.00    -0.401 OA
HETATM   31  H30 UNL     1       3.508  10.133 -10.799  1.00  0.00     0.209 HD
ENDBRANCH  29  30
ENDBRANCH  28  29
ENDBRANCH  27  28
ENDBRANCH  26  27
ENDBRANCH  25  26
ENDBRANCH  24  25
ENDBRANCH   3  24
TORSDOF 11
ENDMDL
MODEL 2
REMARK VINA RESULT:      -7.6      1.560      2.090
REMARK  11 active torsions:
REMARK  status: ('A' for Active; 'I' for Inactive)
REMARK    1  A    between atoms: C1_1  and  C2_2 
REMARK       I    between atoms: C1_1  and  N1_4 
REMARK    2  A    between atoms: N1_4  and  C11_15 
REMARK    3  A    between atoms: N3_6  and  C9_13 
REMARK    4  A    between atoms: C9_13  and  C10_14 
REMARK    5  A    between atoms: C10_14  and  C15_21 
REMARK    6  A    between atoms: C11_15  and  C12_16 
REMARK    7  A    between atoms: C11_15  and  C13_17 
REMARK       I    between atoms: C13_17  and  N4_18 
REMARK    8  A    between atoms: C15_21  and  C16_22 
REMARK    9  A    between atoms: C16_22  and  C17_23 
REMARK   10  A    between atoms: C17_23  and  C20_26 
REMARK   11  A    between atoms: C20_26  and  O3_27 
ROOT
HETATM    1  C2  UNL     1       0.051   3.028 -12.533  1.00  0.00     0.157 A 
HETATM    2  N2  UNL     1       0.597   4.076 -11.886  1.00  0.00    -0.166 NA
HETATM    3  N3  UNL     1       1.223   4.777 -12.846  1.00  0.00    -0.268 N 
HETATM    4  C3  UNL     1       1.092   4.250 -14.105  1.00  0.00     0.065 A 
HETATM    5  C4  UNL     1       0.318   3.104 -13.938  1.00  0.00     0.028 A 
HETATM    6  C5  UNL     1       1.563   4.671 -15.358  1.00  0.00     0.032 A 
HETATM    7  C6  UNL     1       1.228   3.895 -16.470  1.00  0.00     0.002 A 
HETATM    8  C7  UNL     1       0.446   2.751 -16.337  1.00  0.00     0.001 A 
HETATM    9  C8  UNL     1      -0.018   2.345 -15.081  1.00  0.00     0.016 A 
ENDROOT
BRANCH   1  10
HETATM   10  C1  UNL     1      -0.704   1.999 -11.797  1.00  0.00     0.273 C 
HETATM   11  O1  UNL     1      -1.932   1.936 -11.785  1.00  0.00    -0.266 OA
HETATM   12  N1  UNL     1       0.077   1.113 -11.069  1.00  0.00    -0.342 N 
HETATM   13  H1  UNL     1       0.983   1.479 -10.795  1.00  0.00     0.163 HD
BRANCH  12  14
HETATM   14  C11 UNL     1      -0.555   0.221 -10.098  1.00  0.00     0.184 C 
BRANCH  14  15
HETATM   15  C12 UNL     1      -0.622  -1.255 -10.597  1.00  0.00    -0.022 C 
HETATM   16  C14 UNL     1       0.472  -1.478 -11.663  1.00  0.00     0.017 C 
HETATM   17  C18 UNL     1      -0.411  -2.275  -9.464  1.00  0.00     0.017 C 
HETATM   18  C19 UNL     1      -1.988  -1.532 -11.257  1.00  0.00     0.017 C 
ENDBRANCH  14  15
BRANCH  14  19
HETATM   19  C13 UNL     1       0.250   0.391  -8.793  1.00  0.00     0.239 C 
HETATM   20  N4  UNL     1       1.598   0.565  -8.938  1.00  0.00    -0.368 N 
HETATM   21  H11 UNL     1       2.121   0.538  -8.071  1.00  0.00     0.159 HD
HETATM   22  H12 UNL     1       2.060   0.145  -9.737  1.00  0.00     0.159 HD
HETATM   23  O2  UNL     1      -0.265   0.391  -7.677  1.00  0.00    -0.271 OA
ENDBRANCH  14  19
ENDBRANCH  12  14
ENDBRANCH   1  10
BRANCH   3  24
HETATM   24  C9  UNL     1       1.932   5.990 -12.474  1.00  0.00     0.151 C 
BRANCH  24  25
HETATM   25  C10 UNL     1       0.983   7.174 -12.297  1.00  0.00     0.022 C 
BRANCH  25  26
HETATM   26  C15 UNL     1       0.846   7.972 -13.595  1.00  0.00     0.002 C 
BRANCH  26  27
HETATM   27  C16 UNL     1       2.197   8.257 -14.261  1.00  0.00     0.002 C 
BRANCH  27  28
HETATM   28  C17 UNL     1       2.540   9.743 -14.389  1.00  0.00     0.026 C 
BRANCH  28  29
HETATM   29  C20 UNL     1       2.323  10.558 -13.122  1.00  0.00     0.164 C 
BRANCH  29  30
HETATM   30  O3  UNL     1       3.246  10.135 -12.126  1.00  0.00    -0.401 OA
HETATM   31  H30 UNL     1       3.812   9.450 -12.522  1.00  0.00     0.209 HD
ENDBRANCH  29  30
ENDBRANCH  28  29
ENDBRANCH  27  28
ENDBRANCH  26  27
ENDBRANCH  25  26
ENDBRANCH  24  25
ENDBRANCH   3  24
TORSDOF 11
ENDMDL
