MODEL 1
REMARK VINA RESULT:      -8.0      0.000      0.000
REMARK  16 active torsions:
REMARK  status: ('A' for Active; 'I' for Inactive)
REMARK    1  A    between atoms: C2_2  and  O2_21 
REMARK    2  A    between atoms: C3_3  and  C6_6 
REMARK    3  A    between atoms: C4_4  and  C7_7 
REMARK    4  A    between atoms: C5_5  and  O3_22 
REMARK    5  A    between atoms: C7_7  and  C8_8 
REMARK    6  A    between atoms: C9_9  and  C10_10 
REMARK    7  A    between atoms: C10_10  and  C11_11 
REMARK    8  A    between atoms: C10_10  and  O1_20 
REMARK    9  A    between atoms: C11_11  and  C12_12 
REMARK   10  A    between atoms: C12_12  and  C13_13 
REMARK   11  A    between atoms: C15_15  and  C19_19 
REMARK   12  A    between atoms: C20_23  and  C21_24 
REMARK   13  A    between atoms: C21_24  and  C22_25 
REMARK   14  A    between atoms: C22_25  and  C23_26 
REMARK   15  A    between atoms: C23_26  and  C24_27 
REMARK       I    between atoms: C24_27  and  N1_28 
REMARK   16  A    between atoms: N1_28  and  C25_30 
ROOT
HETATM    1  C1  UNL     1      -1.673  -1.092 -12.011  1.00  0.00     0.064 C 
HETATM    2  C2  UNL     1      -0.858  -0.639 -13.210  1.00  0.00     0.128 C 
HETATM    3  C3  UNL     1      -1.153   0.869 -13.258  1.00  0.00     0.043 C 
HETATM    4  C4  UNL     1      -1.063   1.280 -11.770  1.00  0.00     0.028 C 
HETATM    5  C5  UNL     1      -1.474   0.013 -10.976  1.00  0.00     0.125 C 
ENDROOT
BRANCH   3   6
HETATM    6  C6  UNL     1      -0.172   1.615 -14.133  1.00  0.00    -0.021 C 
HETATM    7  C9  UNL     1      -0.519   2.246 -15.269  1.00  0.00     0.001 C 
BRANCH   7   8
HETATM    8  C10 UNL     1       0.379   3.034 -16.193  1.00  0.00     0.141 C 
BRANCH   8   9
HETATM    9  C11 UNL     1       1.734   3.473 -15.616  1.00  0.00     0.040 C 
BRANCH   9  10
HETATM   10  C12 UNL     1       1.769   4.934 -15.150  1.00  0.00     0.041 C 
BRANCH  10  11
HETATM   11  C13 UNL     1       1.541   5.117 -13.671  1.00  0.00    -0.057 A 
HETATM   12  C14 UNL     1       1.893   4.103 -12.770  1.00  0.00     0.023 A 
HETATM   13  C15 UNL     1       1.692   4.258 -11.387  1.00  0.00     0.048 A 
HETATM   14  C16 UNL     1       1.137   5.453 -10.913  1.00  0.00     0.016 A 
HETATM   15  C17 UNL     1       0.778   6.467 -11.804  1.00  0.00     0.001 A 
HETATM   16  C18 UNL     1       0.976   6.299 -13.175  1.00  0.00     0.007 A 
BRANCH  13  17
HETATM   17  C19 UNL     1       2.098   3.157 -10.439  1.00  0.00     0.417 C 
HETATM   18  F1  UNL     1       3.437   3.148 -10.181  1.00  0.00    -0.166 F 
HETATM   19  F2  UNL     1       1.484   3.262  -9.227  1.00  0.00    -0.166 F 
HETATM   20  F3  UNL     1       1.804   1.908 -10.898  1.00  0.00    -0.166 F 
ENDBRANCH  13  17
ENDBRANCH  10  11
ENDBRANCH   9  10
ENDBRANCH   8   9
BRANCH   8  21
HETATM   21  O1  UNL     1      -0.348   4.196 -16.592  1.00  0.00    -0.392 OA
HETATM   22  H21 UNL     1      -0.112   4.364 -17.520  1.00  0.00     0.210 HD
ENDBRANCH   8  21
ENDBRANCH   7   8
ENDBRANCH   3   6
BRANCH   2  23
HETATM   23  O2  UNL     1      -1.282  -1.319 -14.378  1.00  0.00    -0.395 OA
HETATM   24  H22 UNL     1      -1.554  -2.215 -14.110  1.00  0.00     0.210 HD
ENDBRANCH   2  23
BRANCH   4  25
HETATM   25  C7  UNL     1      -1.759   2.606 -11.420  1.00  0.00     0.034 C 
BRANCH  25  26
HETATM   26  C8  UNL     1      -1.725   3.014  -9.975  1.00  0.00    -0.030 C 
HETATM   27  C20 UNL     1      -2.019   4.216  -9.452  1.00  0.00    -0.031 C 
BRANCH  27  28
HETATM   28  C21 UNL     1      -2.451   5.469 -10.159  1.00  0.00     0.027 C 
BRANCH  28  29
HETATM   29  C22 UNL     1      -1.967   6.774  -9.501  1.00  0.00     0.013 C 
BRANCH  29  30
HETATM   30  C23 UNL     1      -1.696   6.654  -7.996  1.00  0.00     0.103 C 
BRANCH  30  31
HETATM   31  C24 UNL     1      -0.274   7.044  -7.622  1.00  0.00     0.217 C 
HETATM   32  N1  UNL     1       0.467   5.996  -7.123  1.00  0.00    -0.361 N 
HETATM   33  H31 UNL     1       0.019   5.101  -6.970  1.00  0.00     0.162 HD
HETATM   34  O4  UNL     1       0.175   8.175  -7.784  1.00  0.00    -0.274 OA
BRANCH  32  35
HETATM   35  C25 UNL     1       1.817   6.174  -6.628  1.00  0.00     0.118 C 
HETATM   36  C26 UNL     1       2.848   5.724  -7.650  1.00  0.00     0.026 C 
ENDBRANCH  32  35
ENDBRANCH  30  31
ENDBRANCH  29  30
ENDBRANCH  28  29
ENDBRANCH  27  28
ENDBRANCH  25  26
ENDBRANCH   4  25
BRANCH   5  37
HETATM   37  O3  UNL     1      -2.633   0.140 -10.176  1.00  0.00    -0.395 OA
HETATM   38  H23 UNL     1      -2.412   0.689  -9.405  1.00  0.00     0.210 HD
ENDBRANCH   5  37
TORSDOF 16
ENDMDL
MODEL 2
REMARK VINA RESULT:      -7.6      2.342      5.449
REMARK  16 active torsions:
REMARK  status: ('A' for Active; 'I' for Inactive)
REMARK    1  A    between atoms: C2_2  and  O2_21 
REMARK    2  A    between atoms: C3_3  and  C6_6 
REMARK    3  A    between atoms: C4_4  and  C7_7 
REMARK    4  A    between atoms: C5_5  and  O3_22 
REMARK    5  A    between atoms: C7_7  and  C8_8 
REMARK    6  A    between atoms: C9_9  and  C10_10 
REMARK    7  A    between atoms: C10_10  and  C11_11 
REMARK    8  A    between atoms: C10_10  and  O1_20 
REMARK    9  A    between atoms: C11_11  and  C12_12 
REMARK   10  A    between atoms: C12_12  and  C13_13 
REMARK   11  A    between atoms: C15_15  and  C19_19 
REMARK   12  A    between atoms: C20_23  and  C21_24 
REMARK   13  A    between atoms: C21_24  and  C22_25 
REMARK   14  A    between atoms: C22_25  and  C23_26 
REMARK   15  A    between atoms: C23_26  and  C24_27 
REMARK       I    between atoms: C24_27  and  N1_28 
REMARK   16  A    between atoms: N1_28  and  C25_30 
ROOT
HETATM    1  C1  UNL     1       0.909   5.211 -15.702  1.00  0.00     0.064 C 
HETATM    2  C2  UNL     1      -0.111   4.088 -15.639  1.00  0.00     0.128 C 
HETATM    3  C3  UNL     1       0.479   3.167 -14.560  1.00  0.00     0.043 C 
HETATM    4  C4  UNL     1       0.938   4.168 -13.473  1.00  0.00     0.028 C 
HETATM    5  C5  UNL     1       1.280   5.468 -14.243  1.00  0.00     0.125 C 
ENDROOT
BRANCH   3   6
HETATM    6  C6  UNL     1      -0.531   2.166 -14.047  1.00  0.00    -0.021 C 
HETATM    7  C9  UNL     1      -0.290   0.847 -13.951  1.00  0.00     0.001 C 
BRANCH   7   8
HETATM    8  C10 UNL     1      -1.222  -0.222 -13.432  1.00  0.00     0.141 C 
BRANCH   8   9
HETATM    9  C11 UNL     1      -1.167  -0.498 -11.921  1.00  0.00     0.040 C 
BRANCH   9  10
HETATM   10  C12 UNL     1      -2.393   0.007 -11.150  1.00  0.00     0.041 C 
BRANCH  10  11
HETATM   11  C13 UNL     1      -2.087   1.077 -10.133  1.00  0.00    -0.057 A 
HETATM   12  C14 UNL     1      -2.035   2.424 -10.518  1.00  0.00     0.023 A 
HETATM   13  C15 UNL     1      -1.756   3.435  -9.583  1.00  0.00     0.048 A 
HETATM   14  C16 UNL     1      -1.536   3.080  -8.246  1.00  0.00     0.016 A 
HETATM   15  C17 UNL     1      -1.580   1.741  -7.855  1.00  0.00     0.001 A 
HETATM   16  C18 UNL     1      -1.852   0.745  -8.793  1.00  0.00     0.007 A 
BRANCH  13  17
HETATM   17  C19 UNL     1      -1.725   4.879 -10.021  1.00  0.00     0.417 C 
HETATM   18  F1  UNL     1      -2.954   5.351 -10.375  1.00  0.00    -0.166 F 
HETATM   19  F2  UNL     1      -1.272   5.710  -9.041  1.00  0.00    -0.166 F 
HETATM   20  F3  UNL     1      -0.922   5.102 -11.099  1.00  0.00    -0.166 F 
ENDBRANCH  13  17
ENDBRANCH  10  11
ENDBRANCH   9  10
ENDBRANCH   8   9
BRANCH   8  21
HETATM   21  O1  UNL     1      -0.907  -1.426 -14.130  1.00  0.00    -0.392 OA
HETATM   22  H21 UNL     1      -1.710  -1.975 -14.111  1.00  0.00     0.210 HD
ENDBRANCH   8  21
ENDBRANCH   7   8
ENDBRANCH   3   6
BRANCH   2  23
HETATM   23  O2  UNL     1      -0.222   3.453 -16.902  1.00  0.00    -0.395 OA
HETATM   24  H22 UNL     1       0.075   2.532 -16.791  1.00  0.00     0.210 HD
ENDBRANCH   2  23
BRANCH   4  25
HETATM   25  C7  UNL     1       1.980   3.619 -12.485  1.00  0.00     0.034 C 
BRANCH  25  26
HETATM   26  C8  UNL     1       1.446   2.816 -11.334  1.00  0.00    -0.030 C 
HETATM   27  C20 UNL     1       1.683   2.996 -10.024  1.00  0.00    -0.031 C 
BRANCH  27  28
HETATM   28  C21 UNL     1       2.540   4.035  -9.357  1.00  0.00     0.027 C 
BRANCH  28  29
HETATM   29  C22 UNL     1       2.045   5.482  -9.535  1.00  0.00     0.013 C 
BRANCH  29  30
HETATM   30  C23 UNL     1       2.924   6.335 -10.459  1.00  0.00     0.103 C 
BRANCH  30  31
HETATM   31  C24 UNL     1       2.127   7.369 -11.239  1.00  0.00     0.217 C 
HETATM   32  N1  UNL     1       2.916   8.237 -11.962  1.00  0.00    -0.361 N 
HETATM   33  H31 UNL     1       3.924   8.183 -11.870  1.00  0.00     0.162 HD
HETATM   34  O4  UNL     1       0.900   7.403 -11.247  1.00  0.00    -0.274 OA
BRANCH  32  35
HETATM   35  C25 UNL     1       2.359   9.348 -12.705  1.00  0.00     0.118 C 
HETATM   36  C26 UNL     1       2.612   9.203 -14.196  1.00  0.00     0.026 C 
ENDBRANCH  32  35
ENDBRANCH  30  31
ENDBRANCH  29  30
ENDBRANCH  28  29
ENDBRANCH  27  28
ENDBRANCH  25  26
ENDBRANCH   4  25
BRANCH   5  37
HETATM   37  O3  UNL     1       2.626   5.896 -14.156  1.00  0.00    -0.395 OA
HETATM   38  H23 UNL     1       3.188   5.112 -14.045  1.00  0.00     0.210 HD
ENDBRANCH   5  37
TORSDOF 16
ENDMDL
