MODEL 1
REMARK VINA RESULT:      -8.0      0.000      0.000
REMARK  5 active torsions:
REMARK  status: ('A' for Active; 'I' for Inactive)
REMARK    1  A    between atoms: C2_2  and  C7_8 
REMARK    2  A    between atoms: C6_6  and  O1_7 
REMARK    3  A    between atoms: C7_8  and  C8_9 
REMARK    4  A    between atoms: C8_9  and  C9_10 
REMARK    5  A    between atoms: C9_10  and  C10_11 
ROOT
HETATM    1  C1  UNL     1      -0.601   0.887 -14.804  1.00  0.00     0.044 A 
HETATM    2  C2  UNL     1      -0.592   2.275 -14.652  1.00  0.00    -0.053 A 
HETATM    3  C3  UNL     1      -0.922   2.810 -13.405  1.00  0.00     0.044 A 
HETATM    4  C4  UNL     1      -1.228   1.969 -12.329  1.00  0.00     0.079 A 
HETATM    5  C5  UNL     1      -1.244   0.568 -12.452  1.00  0.00     0.014 A 
HETATM    6  C6  UNL     1      -0.933   0.062 -13.728  1.00  0.00     0.075 A 
HETATM    7  C12 UNL     1      -1.656  -0.316 -11.218  1.00  0.00     0.040 A 
HETATM    8  C13 UNL     1      -1.873   0.487  -9.918  1.00  0.00     0.034 A 
HETATM    9  C14 UNL     1      -1.337   1.923  -9.924  1.00  0.00     0.069 C 
HETATM   10  O2  UNL     1      -1.552   2.617 -11.162  1.00  0.00    -0.340 OA
HETATM   11  C15 UNL     1      -0.825  -0.374  -9.182  1.00  0.00     0.002 A 
HETATM   12  C16 UNL     1       0.245   0.596  -8.675  1.00  0.00     0.009 C 
HETATM   13  C17 UNL     1       0.157   1.807  -9.589  1.00  0.00     0.039 C 
HETATM   14  C18 UNL     1      -0.630  -1.237 -10.472  1.00  0.00    -0.035 A 
HETATM   15  C19 UNL     1      -1.189  -2.656 -10.273  1.00  0.00     0.016 C 
HETATM   16  C20 UNL     1       0.793  -1.325 -11.022  1.00  0.00     0.016 C 
HETATM   17  C21 UNL     1      -2.070   2.734  -8.847  1.00  0.00     0.047 C 
ENDROOT
BRANCH   2  18
HETATM   18  C7  UNL     1      -0.233   3.174 -15.808  1.00  0.00     0.039 C 
BRANCH  18  19
HETATM   19  C8  UNL     1       1.236   3.069 -16.237  1.00  0.00     0.005 C 
BRANCH  19  20
HETATM   20  C9  UNL     1       2.170   3.933 -15.380  1.00  0.00    -0.000 C 
BRANCH  20  21
HETATM   21  C10 UNL     1       1.544   5.266 -14.964  1.00  0.00    -0.005 C 
HETATM   22  C11 UNL     1       1.609   5.525 -13.468  1.00  0.00     0.005 C 
ENDBRANCH  20  21
ENDBRANCH  19  20
ENDBRANCH  18  19
ENDBRANCH   2  18
BRANCH   6  23
HETATM   23  O1  UNL     1      -0.955  -1.281 -13.994  1.00  0.00    -0.360 OA
HETATM   24  H3  UNL     1      -0.654  -1.426 -14.904  1.00  0.00     0.217 HD
ENDBRANCH   6  23
TORSDOF 5
ENDMDL
MODEL 2
REMARK VINA RESULT:      -7.8      1.066      1.272
REMARK  5 active torsions:
REMARK  status: ('A' for Active; 'I' for Inactive)
REMARK    1  A    between atoms: C2_2  and  C7_8 
REMARK    2  A    between atoms: C6_6  and  O1_7 
REMARK    3  A    between atoms: C7_8  and  C8_9 
REMARK    4  A    between atoms: C8_9  and  C9_10 
REMARK    5  A    between atoms: C9_10  and  C10_11 
ROOT
HETATM    1  C1  UNL     1      -0.676   0.658 -14.061  1.00  0.00     0.044 A 
HETATM    2  C2  UNL     1      -0.741   2.021 -14.358  1.00  0.00    -0.053 A 
HETATM    3  C3  UNL     1      -1.089   2.907 -13.336  1.00  0.00     0.044 A 
HETATM    4  C4  UNL     1      -1.340   2.438 -12.042  1.00  0.00     0.079 A 
HETATM    5  C5  UNL     1      -1.281   1.071 -11.714  1.00  0.00     0.014 A 
HETATM    6  C6  UNL     1      -0.954   0.202 -12.771  1.00  0.00     0.075 A 
HETATM    7  C12 UNL     1      -1.635   0.606 -10.254  1.00  0.00     0.040 A 
HETATM    8  C13 UNL     1      -1.884   1.770  -9.270  1.00  0.00     0.034 A 
HETATM    9  C14 UNL     1      -1.427   3.153  -9.744  1.00  0.00     0.069 C 
HETATM   10  O2  UNL     1      -1.690   3.407 -11.132  1.00  0.00    -0.340 OA
HETATM   11  C15 UNL     1      -0.784   1.239  -8.325  1.00  0.00     0.002 A 
HETATM   12  C16 UNL     1       0.235   2.371  -8.179  1.00  0.00     0.009 C 
HETATM   13  C17 UNL     1       0.074   3.222  -9.427  1.00  0.00     0.039 C 
HETATM   14  C18 UNL     1      -0.554   0.021  -9.280  1.00  0.00    -0.035 A 
HETATM   15  C19 UNL     1      -1.034  -1.286  -8.628  1.00  0.00     0.016 C 
HETATM   16  C20 UNL     1       0.867  -0.168  -9.810  1.00  0.00     0.016 C 
HETATM   17  C21 UNL     1      -2.194   4.228  -8.962  1.00  0.00     0.047 C 
ENDROOT
BRANCH   2  18
HETATM   18  C7  UNL     1      -0.440   2.522 -15.747  1.00  0.00     0.039 C 
BRANCH  18  19
HETATM   19  C8  UNL     1       1.008   2.279 -16.190  1.00  0.00     0.005 C 
BRANCH  19  20
HETATM   20  C9  UNL     1       1.842   3.565 -16.230  1.00  0.00    -0.000 C 
BRANCH  20  21
HETATM   21  C10 UNL     1       1.033   4.819 -15.891  1.00  0.00    -0.005 C 
HETATM   22  C11 UNL     1       1.532   5.545 -14.653  1.00  0.00     0.005 C 
ENDBRANCH  20  21
ENDBRANCH  19  20
ENDBRANCH  18  19
ENDBRANCH   2  18
BRANCH   6  23
HETATM   23  O1  UNL     1      -0.905  -1.156 -12.598  1.00  0.00    -0.360 OA
HETATM   24  H3  UNL     1      -1.577  -1.414 -11.949  1.00  0.00     0.217 HD
ENDBRANCH   6  23
TORSDOF 5
ENDMDL
