MODEL 1
REMARK VINA RESULT:      -6.2      0.000      0.000
REMARK  17 active torsions:
REMARK  status: ('A' for Active; 'I' for Inactive)
REMARK    1  A    between atoms: C1_1  and  C2_2 
REMARK    2  A    between atoms: C1_1  and  C5_5 
REMARK    3  A    between atoms: C3_3  and  C8_8 
REMARK    4  A    between atoms: C4_4  and  C6_6 
REMARK    5  A    between atoms: C6_6  and  C7_7 
REMARK    6  A    between atoms: C7_7  and  C10_10 
REMARK    7  A    between atoms: C8_8  and  C9_9 
REMARK    8  A    between atoms: C9_9  and  C15_15 
REMARK    9  A    between atoms: C10_10  and  C11_11 
REMARK   10  A    between atoms: C11_11  and  C12_12 
REMARK   11  A    between atoms: C12_12  and  C13_13 
REMARK   12  A    between atoms: C13_13  and  C14_14 
REMARK   13  A    between atoms: C14_14  and  C18_18 
REMARK   14  A    between atoms: C15_15  and  C16_16 
REMARK       I    between atoms: C18_18  and  N1_20 
REMARK   15  A    between atoms: N1_20  and  C19_21 
REMARK   16  A    between atoms: C19_21  and  C20_22 
REMARK   17  A    between atoms: C20_22  and  O2_23 
ROOT
HETATM    1  C10 UNL     1      -0.862   2.887 -15.069  1.00  0.00     0.000 C 
ENDROOT
BRANCH   1   2
HETATM    2  C7  UNL     1      -1.207   2.453 -13.643  1.00  0.00     0.004 C 
BRANCH   2   3
HETATM    3  C6  UNL     1      -0.082   2.702 -12.633  1.00  0.00     0.027 C 
BRANCH   3   4
HETATM    4  C4  UNL     1      -0.616   2.661 -11.229  1.00  0.00    -0.030 C 
HETATM    5  C5  UNL     1      -0.113   1.970 -10.190  1.00  0.00    -0.027 C 
BRANCH   5   6
HETATM    6  C1  UNL     1       1.099   1.081 -10.176  1.00  0.00     0.053 C 
BRANCH   6   7
HETATM    7  C2  UNL     1       0.754  -0.362  -9.944  1.00  0.00    -0.027 C 
HETATM    8  C3  UNL     1       0.276  -1.227 -10.854  1.00  0.00    -0.030 C 
BRANCH   8   9
HETATM    9  C8  UNL     1       0.084  -0.970 -12.322  1.00  0.00     0.027 C 
BRANCH   9  10
HETATM   10  C9  UNL     1      -1.375  -0.965 -12.793  1.00  0.00     0.004 C 
BRANCH  10  11
HETATM   11  C15 UNL     1      -2.429  -1.295 -11.733  1.00  0.00    -0.000 C 
BRANCH  11  12
HETATM   12  C16 UNL     1      -3.126  -0.102 -11.080  1.00  0.00    -0.005 C 
HETATM   13  C17 UNL     1      -3.139  -0.152  -9.560  1.00  0.00     0.005 C 
ENDBRANCH  11  12
ENDBRANCH  10  11
ENDBRANCH   9  10
ENDBRANCH   8   9
ENDBRANCH   6   7
ENDBRANCH   5   6
ENDBRANCH   3   4
ENDBRANCH   2   3
ENDBRANCH   1   2
BRANCH   1  14
HETATM   14  C11 UNL     1       0.332   2.179 -15.716  1.00  0.00     0.000 C 
BRANCH  14  15
HETATM   15  C12 UNL     1       1.270   3.074 -16.529  1.00  0.00     0.000 C 
BRANCH  15  16
HETATM   16  C13 UNL     1       1.218   4.546 -16.108  1.00  0.00     0.009 C 
BRANCH  16  17
HETATM   17  C14 UNL     1       2.083   4.829 -14.879  1.00  0.00     0.103 C 
BRANCH  17  18
HETATM   18  C18 UNL     1       1.558   6.022 -14.105  1.00  0.00     0.217 C 
HETATM   19  O1  UNL     1       0.597   5.942 -13.343  1.00  0.00    -0.274 OA
HETATM   20  N1  UNL     1       2.230   7.192 -14.357  1.00  0.00    -0.359 N 
HETATM   21  H32 UNL     1       2.923   7.230 -15.104  1.00  0.00     0.162 HD
BRANCH  20  22
HETATM   22  C19 UNL     1       1.780   8.467 -13.821  1.00  0.00     0.153 C 
BRANCH  22  23
HETATM   23  C20 UNL     1       2.954   9.359 -13.398  1.00  0.00     0.132 C 
HETATM   24  C21 UNL     1       3.062   9.534 -11.886  1.00  0.00     0.041 C 
BRANCH  23  25
HETATM   25  O2  UNL     1       4.169   8.760 -13.876  1.00  0.00    -0.394 OA
HETATM   26  H36 UNL     1       4.362   7.995 -13.305  1.00  0.00     0.210 HD
ENDBRANCH  23  25
ENDBRANCH  22  23
ENDBRANCH  20  22
ENDBRANCH  17  18
ENDBRANCH  16  17
ENDBRANCH  15  16
ENDBRANCH  14  15
ENDBRANCH   1  14
TORSDOF 17
ENDMDL
MODEL 2
REMARK VINA RESULT:      -6.1      2.195      3.779
REMARK  17 active torsions:
REMARK  status: ('A' for Active; 'I' for Inactive)
REMARK    1  A    between atoms: C1_1  and  C2_2 
REMARK    2  A    between atoms: C1_1  and  C5_5 
REMARK    3  A    between atoms: C3_3  and  C8_8 
REMARK    4  A    between atoms: C4_4  and  C6_6 
REMARK    5  A    between atoms: C6_6  and  C7_7 
REMARK    6  A    between atoms: C7_7  and  C10_10 
REMARK    7  A    between atoms: C8_8  and  C9_9 
REMARK    8  A    between atoms: C9_9  and  C15_15 
REMARK    9  A    between atoms: C10_10  and  C11_11 
REMARK   10  A    between atoms: C11_11  and  C12_12 
REMARK   11  A    between atoms: C12_12  and  C13_13 
REMARK   12  A    between atoms: C13_13  and  C14_14 
REMARK   13  A    between atoms: C14_14  and  C18_18 
REMARK   14  A    between atoms: C15_15  and  C16_16 
REMARK       I    between atoms: C18_18  and  N1_20 
REMARK   15  A    between atoms: N1_20  and  C19_21 
REMARK   16  A    between atoms: C19_21  and  C20_22 
REMARK   17  A    between atoms: C20_22  and  O2_23 
ROOT
HETATM    1  C10 UNL     1      -0.592   2.496 -15.428  1.00  0.00     0.000 C 
ENDROOT
BRANCH   1   2
HETATM    2  C7  UNL     1      -0.502   1.686 -14.134  1.00  0.00     0.004 C 
BRANCH   2   3
HETATM    3  C6  UNL     1      -1.044   2.423 -12.904  1.00  0.00     0.027 C 
BRANCH   3   4
HETATM    4  C4  UNL     1      -0.526   1.793 -11.641  1.00  0.00    -0.030 C 
HETATM    5  C5  UNL     1       0.672   2.000 -11.065  1.00  0.00    -0.027 C 
BRANCH   5   6
HETATM    6  C1  UNL     1       1.775   2.906 -11.534  1.00  0.00     0.053 C 
BRANCH   6   7
HETATM    7  C2  UNL     1       2.818   3.141 -10.479  1.00  0.00    -0.027 C 
HETATM    8  C3  UNL     1       3.183   4.328  -9.965  1.00  0.00    -0.030 C 
BRANCH   8   9
HETATM    9  C8  UNL     1       2.556   5.662 -10.253  1.00  0.00     0.027 C 
BRANCH   9  10
HETATM   10  C9  UNL     1       1.291   5.972  -9.444  1.00  0.00     0.004 C 
BRANCH  10  11
HETATM   11  C15 UNL     1       0.074   6.443 -10.245  1.00  0.00    -0.000 C 
BRANCH  11  12
HETATM   12  C16 UNL     1      -0.940   5.367 -10.628  1.00  0.00    -0.005 C 
HETATM   13  C17 UNL     1      -1.619   4.708  -9.437  1.00  0.00     0.005 C 
ENDBRANCH  11  12
ENDBRANCH  10  11
ENDBRANCH   9  10
ENDBRANCH   8   9
ENDBRANCH   6   7
ENDBRANCH   5   6
ENDBRANCH   3   4
ENDBRANCH   2   3
ENDBRANCH   1   2
BRANCH   1  14
HETATM   14  C11 UNL     1       0.743   2.867 -16.081  1.00  0.00     0.000 C 
BRANCH  14  15
HETATM   15  C12 UNL     1       1.066   4.363 -16.121  1.00  0.00     0.000 C 
BRANCH  15  16
HETATM   16  C13 UNL     1       1.862   4.842 -14.904  1.00  0.00     0.009 C 
BRANCH  16  17
HETATM   17  C14 UNL     1       0.967   5.471 -13.836  1.00  0.00     0.103 C 
BRANCH  17  18
HETATM   18  C18 UNL     1       1.060   6.983 -13.867  1.00  0.00     0.217 C 
HETATM   19  O1  UNL     1       0.079   7.707 -13.715  1.00  0.00    -0.274 OA
HETATM   20  N1  UNL     1       2.324   7.462 -14.108  1.00  0.00    -0.359 N 
HETATM   21  H32 UNL     1       3.071   6.817 -14.369  1.00  0.00     0.162 HD
BRANCH  20  22
HETATM   22  C19 UNL     1       2.583   8.877 -14.318  1.00  0.00     0.153 C 
BRANCH  22  23
HETATM   23  C20 UNL     1       2.814   9.622 -12.996  1.00  0.00     0.132 C 
HETATM   24  C21 UNL     1       2.158  10.998 -12.959  1.00  0.00     0.041 C 
BRANCH  23  25
HETATM   25  O2  UNL     1       2.269   8.827 -11.932  1.00  0.00    -0.394 OA
HETATM   26  H36 UNL     1       2.681   9.128 -11.101  1.00  0.00     0.210 HD
ENDBRANCH  23  25
ENDBRANCH  22  23
ENDBRANCH  20  22
ENDBRANCH  17  18
ENDBRANCH  16  17
ENDBRANCH  15  16
ENDBRANCH  14  15
ENDBRANCH   1  14
TORSDOF 17
ENDMDL
