MODEL 1
REMARK VINA RESULT:      -6.1      0.000      0.000
REMARK  19 active torsions:
REMARK  status: ('A' for Active; 'I' for Inactive)
REMARK    1  A    between atoms: C1_1  and  C2_2 
REMARK    2  A    between atoms: C1_1  and  C5_5 
REMARK    3  A    between atoms: C2_2  and  C14_14 
REMARK    4  A    between atoms: C3_3  and  C6_6 
REMARK    5  A    between atoms: C4_4  and  C5_5 
REMARK    6  A    between atoms: C6_6  and  C7_7 
REMARK    7  A    between atoms: C7_7  and  C8_8 
REMARK    8  A    between atoms: C8_8  and  C9_9 
REMARK    9  A    between atoms: C9_9  and  C10_10 
REMARK   10  A    between atoms: C10_10  and  C11_11 
REMARK   11  A    between atoms: C11_11  and  C12_12 
REMARK   12  A    between atoms: C12_12  and  C13_13 
REMARK       I    between atoms: C13_13  and  N1_19 
REMARK   13  A    between atoms: C14_14  and  C15_15 
REMARK   14  A    between atoms: C15_15  and  C16_16 
REMARK   15  A    between atoms: C16_16  and  C17_17 
REMARK   16  A    between atoms: N1_19  and  C19_20 
REMARK   17  A    between atoms: C19_20  and  C20_21 
REMARK   18  A    between atoms: C22_23  and  O1_27 
REMARK   19  A    between atoms: C23_24  and  O2_28 
ROOT
HETATM    1  C11 UNL     1      -1.028   2.535 -13.970  1.00  0.00     0.009 C 
ENDROOT
BRANCH   1   2
HETATM    2  C10 UNL     1      -0.813   2.394 -15.481  1.00  0.00     0.000 C 
BRANCH   2   3
HETATM    3  C9  UNL     1       0.636   2.081 -15.868  1.00  0.00     0.000 C 
BRANCH   3   4
HETATM    4  C8  UNL     1       1.512   3.286 -16.232  1.00  0.00     0.000 C 
BRANCH   4   5
HETATM    5  C7  UNL     1       2.285   3.955 -15.090  1.00  0.00     0.004 C 
BRANCH   5   6
HETATM    6  C6  UNL     1       1.844   5.378 -14.721  1.00  0.00     0.027 C 
BRANCH   6   7
HETATM    7  C3  UNL     1       0.660   5.473 -13.803  1.00  0.00    -0.031 C 
HETATM    8  C4  UNL     1       0.619   5.135 -12.506  1.00  0.00    -0.031 C 
BRANCH   8   9
HETATM    9  C5  UNL     1       1.767   4.625 -11.679  1.00  0.00     0.027 C 
BRANCH   9  10
HETATM   10  C1  UNL     1       2.444   5.736 -10.867  1.00  0.00     0.004 C 
BRANCH  10  11
HETATM   11  C2  UNL     1       1.725   7.082 -10.991  1.00  0.00     0.000 C 
BRANCH  11  12
HETATM   12  C14 UNL     1       2.635   8.205 -11.505  1.00  0.00     0.000 C 
BRANCH  12  13
HETATM   13  C15 UNL     1       3.258   7.938 -12.879  1.00  0.00     0.000 C 
BRANCH  13  14
HETATM   14  C16 UNL     1       2.935   8.958 -13.975  1.00  0.00    -0.000 C 
BRANCH  14  15
HETATM   15  C17 UNL     1       1.677   9.798 -13.748  1.00  0.00    -0.005 C 
HETATM   16  C18 UNL     1       1.957  11.284 -13.592  1.00  0.00     0.005 C 
ENDBRANCH  14  15
ENDBRANCH  13  14
ENDBRANCH  12  13
ENDBRANCH  11  12
ENDBRANCH  10  11
ENDBRANCH   9  10
ENDBRANCH   8   9
ENDBRANCH   6   7
ENDBRANCH   5   6
ENDBRANCH   4   5
ENDBRANCH   3   4
ENDBRANCH   2   3
ENDBRANCH   1   2
BRANCH   1  17
HETATM   17  C12 UNL     1      -0.507   1.301 -13.235  1.00  0.00     0.103 C 
BRANCH  17  18
HETATM   18  C13 UNL     1      -0.360   1.518 -11.740  1.00  0.00     0.217 C 
HETATM   19  N1  UNL     1      -1.496   2.061 -11.178  1.00  0.00    -0.357 N 
HETATM   20  H34 UNL     1      -2.348   2.057 -11.723  1.00  0.00     0.162 HD
HETATM   21  O3  UNL     1       0.663   1.275 -11.109  1.00  0.00    -0.274 OA
BRANCH  19  22
HETATM   22  C19 UNL     1      -1.613   2.293  -9.758  1.00  0.00     0.161 C 
BRANCH  22  23
HETATM   23  C20 UNL     1      -1.497   3.759  -9.427  1.00  0.00    -0.038 A 
HETATM   24  C21 UNL     1      -0.639   4.183  -8.389  1.00  0.00     0.048 A 
HETATM   25  C22 UNL     1      -0.523   5.536  -8.073  1.00  0.00     0.101 A 
HETATM   26  C23 UNL     1      -1.305   6.460  -8.782  1.00  0.00     0.099 A 
HETATM   27  C24 UNL     1      -2.160   6.064  -9.808  1.00  0.00     0.040 A 
HETATM   28  C25 UNL     1      -2.248   4.712 -10.138  1.00  0.00     0.012 A 
BRANCH  25  29
HETATM   29  O1  UNL     1       0.289   6.080  -7.107  1.00  0.00    -0.353 OA
HETATM   30  C26 UNL     1       1.693   5.919  -7.287  1.00  0.00     0.210 C 
ENDBRANCH  25  29
BRANCH  26  31
HETATM   31  O2  UNL     1      -1.239   7.795  -8.477  1.00  0.00    -0.358 OA
HETATM   32  H40 UNL     1      -1.114   8.239  -9.344  1.00  0.00     0.217 HD
ENDBRANCH  26  31
ENDBRANCH  22  23
ENDBRANCH  19  22
ENDBRANCH  17  18
ENDBRANCH   1  17
TORSDOF 19
ENDMDL
MODEL 2
REMARK VINA RESULT:      -6.1      2.018      5.891
REMARK  19 active torsions:
REMARK  status: ('A' for Active; 'I' for Inactive)
REMARK    1  A    between atoms: C1_1  and  C2_2 
REMARK    2  A    between atoms: C1_1  and  C5_5 
REMARK    3  A    between atoms: C2_2  and  C14_14 
REMARK    4  A    between atoms: C3_3  and  C6_6 
REMARK    5  A    between atoms: C4_4  and  C5_5 
REMARK    6  A    between atoms: C6_6  and  C7_7 
REMARK    7  A    between atoms: C7_7  and  C8_8 
REMARK    8  A    between atoms: C8_8  and  C9_9 
REMARK    9  A    between atoms: C9_9  and  C10_10 
REMARK   10  A    between atoms: C10_10  and  C11_11 
REMARK   11  A    between atoms: C11_11  and  C12_12 
REMARK   12  A    between atoms: C12_12  and  C13_13 
REMARK       I    between atoms: C13_13  and  N1_19 
REMARK   13  A    between atoms: C14_14  and  C15_15 
REMARK   14  A    between atoms: C15_15  and  C16_16 
REMARK   15  A    between atoms: C16_16  and  C17_17 
REMARK   16  A    between atoms: N1_19  and  C19_20 
REMARK   17  A    between atoms: C19_20  and  C20_21 
REMARK   18  A    between atoms: C22_23  and  O1_27 
REMARK   19  A    between atoms: C23_24  and  O2_28 
ROOT
HETATM    1  C11 UNL     1      -1.379   6.055 -10.066  1.00  0.00     0.009 C 
ENDROOT
BRANCH   1   2
HETATM    2  C10 UNL     1      -0.206   6.287  -9.108  1.00  0.00     0.000 C 
BRANCH   2   3
HETATM    3  C9  UNL     1       1.154   5.899  -9.697  1.00  0.00     0.000 C 
BRANCH   3   4
HETATM    4  C8  UNL     1       1.450   4.396  -9.775  1.00  0.00     0.000 C 
BRANCH   4   5
HETATM    5  C7  UNL     1       2.167   3.892 -11.033  1.00  0.00     0.004 C 
BRANCH   5   6
HETATM    6  C6  UNL     1       1.392   2.885 -11.891  1.00  0.00     0.027 C 
BRANCH   6   7
HETATM    7  C3  UNL     1      -0.079   3.152 -12.038  1.00  0.00    -0.031 C 
HETATM    8  C4  UNL     1      -0.892   2.669 -12.989  1.00  0.00    -0.031 C 
BRANCH   8   9
HETATM    9  C5  UNL     1      -0.513   1.719 -14.091  1.00  0.00     0.027 C 
BRANCH   9  10
HETATM   10  C1  UNL     1      -0.494   2.396 -15.467  1.00  0.00     0.004 C 
BRANCH  10  11
HETATM   11  C2  UNL     1       0.908   2.450 -16.080  1.00  0.00     0.000 C 
BRANCH  11  12
HETATM   12  C14 UNL     1       1.752   3.615 -15.546  1.00  0.00     0.000 C 
BRANCH  12  13
HETATM   13  C15 UNL     1       1.030   4.966 -15.526  1.00  0.00     0.000 C 
BRANCH  13  14
HETATM   14  C16 UNL     1       1.069   5.731 -14.200  1.00  0.00    -0.000 C 
BRANCH  14  15
HETATM   15  C17 UNL     1       1.969   6.968 -14.176  1.00  0.00    -0.005 C 
HETATM   16  C18 UNL     1       2.584   7.246 -12.814  1.00  0.00     0.005 C 
ENDBRANCH  14  15
ENDBRANCH  13  14
ENDBRANCH  12  13
ENDBRANCH  11  12
ENDBRANCH  10  11
ENDBRANCH   9  10
ENDBRANCH   8   9
ENDBRANCH   6   7
ENDBRANCH   5   6
ENDBRANCH   4   5
ENDBRANCH   3   4
ENDBRANCH   2   3
ENDBRANCH   1   2
BRANCH   1  17
HETATM   17  C12 UNL     1      -2.591   5.510  -9.312  1.00  0.00     0.103 C 
BRANCH  17  18
HETATM   18  C13 UNL     1      -2.237   4.396  -8.344  1.00  0.00     0.217 C 
HETATM   19  N1  UNL     1      -1.899   3.228  -8.995  1.00  0.00    -0.357 N 
HETATM   20  H34 UNL     1      -1.707   3.271  -9.986  1.00  0.00     0.162 HD
HETATM   21  O3  UNL     1      -2.282   4.508  -7.124  1.00  0.00    -0.274 OA
BRANCH  19  22
HETATM   22  C19 UNL     1      -1.460   2.052  -8.280  1.00  0.00     0.161 C 
BRANCH  22  23
HETATM   23  C20 UNL     1      -0.906   1.011  -9.219  1.00  0.00    -0.038 A 
HETATM   24  C21 UNL     1      -1.757   0.375 -10.150  1.00  0.00     0.048 A 
HETATM   25  C22 UNL     1      -1.256  -0.589 -11.024  1.00  0.00     0.101 A 
HETATM   26  C23 UNL     1       0.099  -0.940 -10.931  1.00  0.00     0.099 A 
HETATM   27  C24 UNL     1       0.955  -0.327 -10.020  1.00  0.00     0.040 A 
HETATM   28  C25 UNL     1       0.454   0.658  -9.169  1.00  0.00     0.012 A 
BRANCH  25  29
HETATM   29  O1  UNL     1      -1.968  -1.263 -11.987  1.00  0.00    -0.353 OA
HETATM   30  C26 UNL     1      -3.337  -1.532 -11.699  1.00  0.00     0.210 C 
ENDBRANCH  25  29
BRANCH  26  31
HETATM   31  O2  UNL     1       0.618  -1.906 -11.754  1.00  0.00    -0.358 OA
HETATM   32  H40 UNL     1       1.521  -1.588 -11.968  1.00  0.00     0.217 HD
ENDBRANCH  26  31
ENDBRANCH  22  23
ENDBRANCH  19  22
ENDBRANCH  17  18
ENDBRANCH   1  17
TORSDOF 19
ENDMDL
