MODEL 1
REMARK VINA RESULT:      -6.0      0.000      0.000
REMARK  7 active torsions:
REMARK  status: ('A' for Active; 'I' for Inactive)
REMARK    1  A    between atoms: C1_1  and  O3_9 
REMARK    2  A    between atoms: C5_5  and  C6_6 
REMARK    3  A    between atoms: C5_5  and  O1_7 
REMARK    4  A    between atoms: C6_6  and  O2_8 
REMARK    5  A    between atoms: O6_12  and  P2_19 
REMARK    6  A    between atoms: P1_15  and  O9_18 
REMARK    7  A    between atoms: P2_19  and  O12_22 
ROOT
HETATM    1  C1  UNL     1       0.922   4.057  -9.862  1.00  0.00     0.180 A 
HETATM    2  C2  UNL     1       0.165   5.394 -10.100  1.00  0.00     0.181 A 
HETATM    3  C3  UNL     1       0.929   6.640  -9.562  1.00  0.00     0.198 A 
HETATM    4  C4  UNL     1       2.434   6.522  -9.866  1.00  0.00     0.198 A 
HETATM    5  C5  UNL     1       3.030   5.283  -9.142  1.00  0.00     0.181 A 
HETATM    6  C6  UNL     1       1.981   4.207  -8.770  1.00  0.00     0.180 A 
HETATM    7  O4  UNL     1      -0.130   5.478 -11.514  1.00  0.00    -0.390 OA
HETATM    8  O5  UNL     1       0.839   6.808  -8.146  1.00  0.00    -0.279 OA
HETATM    9  O6  UNL     1       2.695   6.403 -11.259  1.00  0.00    -0.279 OA
HETATM   10 NA1  UNL     1       1.366   6.031  -9.620  1.00  0.00     0.000 Na
HETATM   11 NA2  UNL     1       1.366   6.031  -9.620  1.00  0.00     0.000 Na
HETATM   12  P1  UNL     1      -0.612   6.916  -7.455  1.00  0.00     0.406 P 
HETATM   13  O7  UNL     1      -1.119   5.550  -7.107  1.00  0.00    -0.624 OA
HETATM   14  O8  UNL     1      -1.431   7.955  -8.162  1.00  0.00    -0.624 OA
HETATM   15  H10 UNL     1       0.284   6.300 -11.867  1.00  0.00     0.210 HD
ENDROOT
BRANCH   9  16
HETATM   16  P2  UNL     1       2.633   7.707 -12.208  1.00  0.00     0.406 P 
HETATM   17  O10 UNL     1       2.505   8.957 -11.387  1.00  0.00    -0.624 OA
HETATM   18  O11 UNL     1       3.572   7.597 -13.371  1.00  0.00    -0.624 OA
BRANCH  16  19
HETATM   19  O12 UNL     1       1.136   7.510 -12.779  1.00  0.00    -0.300 OA
HETATM   20  H12 UNL     1       0.833   6.721 -12.288  1.00  0.00     0.223 HD
ENDBRANCH  16  19
ENDBRANCH   9  16
BRANCH   5  21
HETATM   21  O1  UNL     1       3.674   5.670  -7.901  1.00  0.00    -0.390 OA
HETATM   22  H7  UNL     1       3.074   6.333  -7.501  1.00  0.00     0.210 HD
ENDBRANCH   5  21
BRANCH   1  23
HETATM   23  O3  UNL     1       1.541   3.607 -11.087  1.00  0.00    -0.390 OA
HETATM   24  H9  UNL     1       1.090   2.759 -11.291  1.00  0.00     0.210 HD
ENDBRANCH   1  23
BRANCH   6  25
HETATM   25  O2  UNL     1       2.658   2.964  -8.486  1.00  0.00    -0.390 OA
HETATM   26  H8  UNL     1       3.605   3.197  -8.512  1.00  0.00     0.210 HD
ENDBRANCH   6  25
BRANCH  12  27
HETATM   27  O9  UNL     1      -0.160   7.661  -6.102  1.00  0.00    -0.300 OA
HETATM   28  H11 UNL     1      -0.619   7.137  -5.423  1.00  0.00     0.223 HD
ENDBRANCH  12  27
TORSDOF 7
ENDMDL
MODEL 2
REMARK VINA RESULT:      -5.8      1.586      2.495
REMARK  7 active torsions:
REMARK  status: ('A' for Active; 'I' for Inactive)
REMARK    1  A    between atoms: C1_1  and  O3_9 
REMARK    2  A    between atoms: C5_5  and  C6_6 
REMARK    3  A    between atoms: C5_5  and  O1_7 
REMARK    4  A    between atoms: C6_6  and  O2_8 
REMARK    5  A    between atoms: O6_12  and  P2_19 
REMARK    6  A    between atoms: P1_15  and  O9_18 
REMARK    7  A    between atoms: P2_19  and  O12_22 
ROOT
HETATM    1  C1  UNL     1       2.633   4.480  -9.353  1.00  0.00     0.180 A 
HETATM    2  C2  UNL     1       1.505   4.305 -10.409  1.00  0.00     0.181 A 
HETATM    3  C3  UNL     1       0.668   5.599 -10.637  1.00  0.00     0.198 A 
HETATM    4  C4  UNL     1       1.584   6.837 -10.659  1.00  0.00     0.198 A 
HETATM    5  C5  UNL     1       2.297   6.999  -9.289  1.00  0.00     0.181 A 
HETATM    6  C6  UNL     1       2.373   5.693  -8.461  1.00  0.00     0.180 A 
HETATM    7  O4  UNL     1       2.121   3.809 -11.621  1.00  0.00    -0.390 OA
HETATM    8  O5  UNL     1      -0.293   5.855  -9.611  1.00  0.00    -0.279 OA
HETATM    9  O6  UNL     1       2.573   6.757 -11.679  1.00  0.00    -0.279 OA
HETATM   10 NA1  UNL     1       1.316   5.729 -10.280  1.00  0.00     0.000 Na
HETATM   11 NA2  UNL     1       1.316   5.729 -10.280  1.00  0.00     0.000 Na
HETATM   12  P1  UNL     1      -1.398   4.734  -9.268  1.00  0.00     0.406 P 
HETATM   13  O7  UNL     1      -0.867   3.789  -8.233  1.00  0.00    -0.624 OA
HETATM   14  O8  UNL     1      -2.079   4.295 -10.529  1.00  0.00    -0.624 OA
HETATM   15  H10 UNL     1       1.931   4.448 -12.348  1.00  0.00     0.210 HD
ENDROOT
BRANCH   9  16
HETATM   16  P2  UNL     1       2.178   7.056 -13.214  1.00  0.00     0.406 P 
HETATM   17  O10 UNL     1       2.058   5.776 -13.991  1.00  0.00    -0.624 OA
HETATM   18  O11 UNL     1       1.178   8.166 -13.329  1.00  0.00    -0.624 OA
BRANCH  16  19
HETATM   19  O12 UNL     1       3.599   7.635 -13.714  1.00  0.00    -0.300 OA
HETATM   20  H12 UNL     1       3.402   7.891 -14.636  1.00  0.00     0.223 HD
ENDBRANCH  16  19
ENDBRANCH   9  16
BRANCH   5  21
HETATM   21  O1  UNL     1       1.605   7.967  -8.458  1.00  0.00    -0.390 OA
HETATM   22  H7  UNL     1       1.557   8.779  -9.003  1.00  0.00     0.210 HD
ENDBRANCH   5  21
BRANCH   1  23
HETATM   23  O3  UNL     1       3.914   4.616 -10.007  1.00  0.00    -0.390 OA
HETATM   24  H9  UNL     1       4.207   5.525  -9.779  1.00  0.00     0.210 HD
ENDBRANCH   1  23
BRANCH   6  25
HETATM   25  O2  UNL     1       3.374   5.843  -7.431  1.00  0.00    -0.390 OA
HETATM   26  H8  UNL     1       3.296   5.029  -6.901  1.00  0.00     0.210 HD
ENDBRANCH   6  25
BRANCH  12  27
HETATM   27  O9  UNL     1      -2.486   5.698  -8.578  1.00  0.00    -0.300 OA
HETATM   28  H11 UNL     1      -3.305   5.186  -8.688  1.00  0.00     0.223 HD
ENDBRANCH  12  27
TORSDOF 7
ENDMDL
