MODEL 1
REMARK VINA RESULT:      -6.7      0.000      0.000
REMARK  16 active torsions:
REMARK  status: ('A' for Active; 'I' for Inactive)
REMARK    1  A    between atoms: C1_1  and  C2_2 
REMARK    2  A    between atoms: C1_1  and  C21_22 
REMARK    3  A    between atoms: C2_2  and  C3_3 
REMARK    4  A    between atoms: C3_3  and  C4_4 
REMARK    5  A    between atoms: C3_3  and  O1_21 
REMARK    6  A    between atoms: C4_4  and  C5_5 
REMARK    7  A    between atoms: C5_5  and  C6_6 
REMARK    8  A    between atoms: C6_6  and  C7_7 
REMARK    9  A    between atoms: C7_7  and  C8_8 
REMARK   10  A    between atoms: C8_8  and  C9_9 
REMARK   11  A    between atoms: C9_9  and  C10_10 
REMARK   12  A    between atoms: C10_10  and  C11_11 
REMARK   13  A    between atoms: C11_11  and  C12_12 
REMARK   14  A    between atoms: C12_12  and  C13_13 
REMARK   15  A    between atoms: C13_13  and  C14_14 
REMARK   16  A    between atoms: C14_14  and  C15_15 
ROOT
HETATM    1  C3  UNL     1      -0.344   2.010 -11.176  1.00  0.00     0.054 C 
HETATM    2  C20 UNL     1      -0.739   1.277 -12.473  1.00  0.00     0.045 C 
ENDROOT
BRANCH   1   3
HETATM    3  C2  UNL     1      -1.044   3.390 -11.143  1.00  0.00     0.042 C 
BRANCH   3   4
HETATM    4  C1  UNL     1      -2.025   3.622  -9.982  1.00  0.00     0.046 C 
BRANCH   4   5
HETATM    5  C21 UNL     1      -1.480   4.631  -8.988  1.00  0.00     0.002 A 
HETATM    6  C22 UNL     1      -1.582   5.966  -9.107  1.00  0.00    -0.001 A 
HETATM    7  C23 UNL     1      -2.292   6.694 -10.215  1.00  0.00     0.053 C 
HETATM    8  C24 UNL     1      -0.981   6.868  -8.085  1.00  0.00     0.185 A 
HETATM    9  O2  UNL     1      -1.107   8.086  -8.178  1.00  0.00    -0.287 OA
HETATM   10  C25 UNL     1      -0.224   6.268  -6.949  1.00  0.00    -0.002 A 
HETATM   11  C26 UNL     1       0.391   7.286  -6.028  1.00  0.00     0.053 C 
HETATM   12  C27 UNL     1      -0.134   4.932  -6.820  1.00  0.00    -0.002 A 
HETATM   13  C28 UNL     1       0.566   4.201  -5.708  1.00  0.00     0.053 C 
HETATM   14  C29 UNL     1      -0.771   4.030  -7.821  1.00  0.00     0.185 A 
HETATM   15  O3  UNL     1      -0.717   2.809  -7.682  1.00  0.00    -0.287 OA
ENDBRANCH   4   5
ENDBRANCH   3   4
ENDBRANCH   1   3
BRANCH   1  16
HETATM   16  C4  UNL     1       1.201   2.081 -11.132  1.00  0.00     0.037 C 
BRANCH  16  17
HETATM   17  C5  UNL     1       1.797   3.057 -10.118  1.00  0.00     0.003 C 
BRANCH  17  18
HETATM   18  C6  UNL     1       2.408   4.329 -10.726  1.00  0.00     0.004 C 
BRANCH  18  19
HETATM   19  C7  UNL     1       2.979   5.418  -9.788  1.00  0.00    -0.019 C 
HETATM   20  C19 UNL     1       3.273   4.885  -8.381  1.00  0.00     0.010 C 
BRANCH  19  21
HETATM   21  C8  UNL     1       2.127   6.701  -9.777  1.00  0.00     0.004 C 
BRANCH  21  22
HETATM   22  C9  UNL     1       1.411   7.043 -11.093  1.00  0.00     0.001 C 
BRANCH  22  23
HETATM   23  C10 UNL     1       2.197   8.007 -11.989  1.00  0.00     0.004 C 
BRANCH  23  24
HETATM   24  C11 UNL     1       2.366   7.548 -13.456  1.00  0.00    -0.019 C 
HETATM   25  C18 UNL     1       2.393   8.744 -14.413  1.00  0.00     0.010 C 
BRANCH  24  26
HETATM   26  C12 UNL     1       1.302   6.507 -13.855  1.00  0.00     0.004 C 
BRANCH  26  27
HETATM   27  C13 UNL     1       1.875   5.329 -14.656  1.00  0.00     0.001 C 
BRANCH  27  28
HETATM   28  C14 UNL     1       1.192   4.014 -14.265  1.00  0.00     0.004 C 
BRANCH  28  29
HETATM   29  C15 UNL     1       0.766   3.116 -15.442  1.00  0.00    -0.023 C 
HETATM   30  C16 UNL     1      -0.747   3.130 -15.666  1.00  0.00     0.009 C 
HETATM   31  C17 UNL     1       1.501   3.461 -16.738  1.00  0.00     0.009 C 
ENDBRANCH  28  29
ENDBRANCH  27  28
ENDBRANCH  26  27
ENDBRANCH  24  26
ENDBRANCH  23  24
ENDBRANCH  22  23
ENDBRANCH  21  22
ENDBRANCH  19  21
ENDBRANCH  18  19
ENDBRANCH  17  18
ENDBRANCH  16  17
ENDBRANCH   1  16
BRANCH   1  32
HETATM   32  O1  UNL     1      -0.786   1.201 -10.084  1.00  0.00    -0.390 OA
HETATM   33  H41 UNL     1      -1.014   1.793  -9.345  1.00  0.00     0.210 HD
ENDBRANCH   1  32
TORSDOF 16
ENDMDL
MODEL 2
REMARK VINA RESULT:      -6.5      0.874      3.739
REMARK  16 active torsions:
REMARK  status: ('A' for Active; 'I' for Inactive)
REMARK    1  A    between atoms: C1_1  and  C2_2 
REMARK    2  A    between atoms: C1_1  and  C21_22 
REMARK    3  A    between atoms: C2_2  and  C3_3 
REMARK    4  A    between atoms: C3_3  and  C4_4 
REMARK    5  A    between atoms: C3_3  and  O1_21 
REMARK    6  A    between atoms: C4_4  and  C5_5 
REMARK    7  A    between atoms: C5_5  and  C6_6 
REMARK    8  A    between atoms: C6_6  and  C7_7 
REMARK    9  A    between atoms: C7_7  and  C8_8 
REMARK   10  A    between atoms: C8_8  and  C9_9 
REMARK   11  A    between atoms: C9_9  and  C10_10 
REMARK   12  A    between atoms: C10_10  and  C11_11 
REMARK   13  A    between atoms: C11_11  and  C12_12 
REMARK   14  A    between atoms: C12_12  and  C13_13 
REMARK   15  A    between atoms: C13_13  and  C14_14 
REMARK   16  A    between atoms: C14_14  and  C15_15 
ROOT
HETATM    1  C3  UNL     1      -0.715   1.835 -11.800  1.00  0.00     0.054 C 
HETATM    2  C20 UNL     1      -1.780   1.011 -11.051  1.00  0.00     0.045 C 
ENDROOT
BRANCH   1   3
HETATM    3  C2  UNL     1      -0.850   3.323 -11.394  1.00  0.00     0.042 C 
BRANCH   3   4
HETATM    4  C1  UNL     1      -1.984   3.653 -10.410  1.00  0.00     0.046 C 
BRANCH   4   5
HETATM    5  C21 UNL     1      -1.497   4.543  -9.282  1.00  0.00     0.002 A 
HETATM    6  C22 UNL     1      -1.502   5.887  -9.299  1.00  0.00    -0.001 A 
HETATM    7  C23 UNL     1      -2.033   6.745 -10.413  1.00  0.00     0.053 C 
HETATM    8  C24 UNL     1      -0.969   6.664  -8.145  1.00  0.00     0.185 A 
HETATM    9  O2  UNL     1      -1.009   7.892  -8.149  1.00  0.00    -0.287 OA
HETATM   10  C25 UNL     1      -0.387   5.928  -6.987  1.00  0.00    -0.002 A 
HETATM   11  C26 UNL     1       0.179   6.827  -5.922  1.00  0.00     0.053 C 
HETATM   12  C27 UNL     1      -0.394   4.583  -6.961  1.00  0.00    -0.002 A 
HETATM   13  C28 UNL     1       0.126   3.722  -5.842  1.00  0.00     0.053 C 
HETATM   14  C29 UNL     1      -0.966   3.806  -8.097  1.00  0.00     0.185 A 
HETATM   15  O3  UNL     1      -1.003   2.577  -8.055  1.00  0.00    -0.287 OA
ENDBRANCH   4   5
ENDBRANCH   3   4
ENDBRANCH   1   3
BRANCH   1  16
HETATM   16  C4  UNL     1      -0.899   1.571 -13.314  1.00  0.00     0.037 C 
BRANCH  16  17
HETATM   17  C5  UNL     1      -0.794   2.794 -14.223  1.00  0.00     0.003 C 
BRANCH  17  18
HETATM   18  C6  UNL     1       0.034   2.581 -15.501  1.00  0.00     0.004 C 
BRANCH  18  19
HETATM   19  C7  UNL     1       0.987   3.700 -15.981  1.00  0.00    -0.019 C 
HETATM   20  C19 UNL     1       2.454   3.401 -15.654  1.00  0.00     0.010 C 
BRANCH  19  21
HETATM   21  C8  UNL     1       0.543   5.100 -15.517  1.00  0.00     0.004 C 
BRANCH  21  22
HETATM   22  C9  UNL     1       1.458   5.791 -14.495  1.00  0.00     0.001 C 
BRANCH  22  23
HETATM   23  C10 UNL     1       0.705   6.663 -13.483  1.00  0.00     0.004 C 
BRANCH  23  24
HETATM   24  C11 UNL     1       1.404   7.992 -13.114  1.00  0.00    -0.019 C 
HETATM   25  C18 UNL     1       2.152   8.579 -14.316  1.00  0.00     0.010 C 
BRANCH  24  26
HETATM   26  C12 UNL     1       2.317   7.835 -11.882  1.00  0.00     0.004 C 
BRANCH  26  27
HETATM   27  C13 UNL     1       1.722   6.926 -10.797  1.00  0.00     0.001 C 
BRANCH  27  28
HETATM   28  C14 UNL     1       2.572   5.665 -10.608  1.00  0.00     0.004 C 
BRANCH  28  29
HETATM   29  C15 UNL     1       2.314   4.885  -9.305  1.00  0.00    -0.023 C 
HETATM   30  C16 UNL     1       2.430   3.372  -9.500  1.00  0.00     0.009 C 
HETATM   31  C17 UNL     1       3.214   5.346  -8.159  1.00  0.00     0.009 C 
ENDBRANCH  28  29
ENDBRANCH  27  28
ENDBRANCH  26  27
ENDBRANCH  24  26
ENDBRANCH  23  24
ENDBRANCH  22  23
ENDBRANCH  21  22
ENDBRANCH  19  21
ENDBRANCH  18  19
ENDBRANCH  17  18
ENDBRANCH  16  17
ENDBRANCH   1  16
BRANCH   1  32
HETATM   32  O1  UNL     1       0.562   1.326 -11.410  1.00  0.00    -0.390 OA
HETATM   33  H41 UNL     1       1.234   1.725 -11.992  1.00  0.00     0.210 HD
ENDBRANCH   1  32
TORSDOF 16
ENDMDL
