MODEL 1
REMARK VINA RESULT:      -8.7      0.000      0.000
REMARK  12 active torsions:
REMARK  status: ('A' for Active; 'I' for Inactive)
REMARK    1  A    between atoms: C1_2  and  C2_3 
REMARK    2  A    between atoms: C1_2  and  O12_34 
REMARK    3  A    between atoms: O2_4  and  C3_5 
REMARK    4  A    between atoms: O3_6  and  C4_7 
REMARK    5  A    between atoms: C5_8  and  O13_35 
REMARK    6  A    between atoms: C6_9  and  C8_12 
REMARK    7  A    between atoms: O4_10  and  C7_11 
REMARK    8  A    between atoms: O5_13  and  C9_14 
REMARK    9  A    between atoms: O6_15  and  C10_16 
REMARK   10  A    between atoms: O7_18  and  C12_19 
REMARK   11  A    between atoms: O9_21  and  C13_22 
REMARK   12  A    between atoms: C13_22  and  C14_23 
ROOT
HETATM    1  C7  UNL     1       0.095   2.173 -11.751  1.00  0.00     0.092 A 
HETATM    2  C8  UNL     1      -0.447   1.032 -12.369  1.00  0.00     0.043 A 
HETATM    3  C9  UNL     1      -0.560   1.069 -13.761  1.00  0.00     0.111 A 
HETATM    4  C10 UNL     1      -0.135   2.178 -14.507  1.00  0.00     0.115 A 
HETATM    5  C11 UNL     1       1.715   6.796 -14.689  1.00  0.00     0.054 A 
HETATM    6  C12 UNL     1       2.145   7.958 -14.063  1.00  0.00     0.084 A 
HETATM    7  C14 UNL     1       2.298   8.011 -12.667  1.00  0.00     0.077 A 
HETATM    8  C15 UNL     1       2.357   6.838 -10.411  1.00  0.00     0.050 C 
HETATM    9  C16 UNL     1       2.062   6.841 -11.893  1.00  0.00    -0.027 A 
HETATM   10  C17 UNL     1       1.549   5.677 -12.542  1.00  0.00     0.036 A 
HETATM   11  C18 UNL     1       1.399   5.663 -13.933  1.00  0.00     0.032 A 
HETATM   12  O10 UNL     1       0.980   4.465 -15.876  1.00  0.00    -0.286 OA
HETATM   13  C19 UNL     1       0.928   4.460 -14.651  1.00  0.00     0.197 C 
HETATM   14  C20 UNL     1       0.439   3.292 -13.885  1.00  0.00     0.068 A 
HETATM   15  C21 UNL     1       0.547   3.292 -12.495  1.00  0.00     0.066 A 
HETATM   16  C22 UNL     1       1.126   4.461 -11.795  1.00  0.00     0.197 C 
HETATM   17  O11 UNL     1       1.212   4.391 -10.572  1.00  0.00    -0.286 OA
ENDROOT
BRANCH   2  18
HETATM   18  C6  UNL     1      -0.905  -0.152 -11.522  1.00  0.00     0.192 C 
HETATM   19  O1  UNL     1      -1.817   0.306 -10.508  1.00  0.00    -0.368 OA
HETATM   20  C2  UNL     1      -2.469  -0.787  -9.819  1.00  0.00     0.177 C 
HETATM   21  C3  UNL     1      -1.515  -1.975  -9.539  1.00  0.00     0.180 C 
HETATM   22  C4  UNL     1      -0.054  -1.496  -9.516  1.00  0.00     0.181 C 
HETATM   23  C5  UNL     1       0.309  -0.887 -10.885  1.00  0.00     0.183 C 
BRANCH  20  24
HETATM   24  C1  UNL     1      -3.064  -0.194  -8.530  1.00  0.00     0.198 C 
BRANCH  24  25
HETATM   25  O12 UNL     1      -2.363   0.971  -8.117  1.00  0.00    -0.398 OA
HETATM   26  H19 UNL     1      -2.779   1.275  -7.291  1.00  0.00     0.209 HD
ENDBRANCH  24  25
ENDBRANCH  20  24
BRANCH  21  27
HETATM   27  O2  UNL     1      -1.701  -2.962 -10.572  1.00  0.00    -0.390 OA
HETATM   28  H4  UNL     1      -1.005  -3.646 -10.485  1.00  0.00     0.210 HD
ENDBRANCH  21  27
BRANCH  22  29
HETATM   29  O3  UNL     1       0.166  -0.552  -8.465  1.00  0.00    -0.390 OA
HETATM   30  H6  UNL     1       0.946  -0.021  -8.713  1.00  0.00     0.210 HD
ENDBRANCH  22  29
BRANCH  23  31
HETATM   31  O13 UNL     1       0.740  -1.965 -11.741  1.00  0.00    -0.390 OA
HETATM   32  H20 UNL     1       0.214  -2.754 -11.484  1.00  0.00     0.210 HD
ENDBRANCH  23  31
ENDBRANCH   2  18
BRANCH   1  33
HETATM   33  O4  UNL     1       0.137   2.157 -10.374  1.00  0.00    -0.359 OA
HETATM   34  H10 UNL     1       0.979   1.721 -10.095  1.00  0.00     0.217 HD
ENDBRANCH   1  33
BRANCH   3  35
HETATM   35  O5  UNL     1      -1.094   0.036 -14.491  1.00  0.00    -0.357 OA
HETATM   36  H11 UNL     1      -1.996  -0.127 -14.134  1.00  0.00     0.217 HD
ENDBRANCH   3  35
BRANCH   4  37
HETATM   37  O6  UNL     1      -0.315   2.113 -15.863  1.00  0.00    -0.357 OA
HETATM   38  H12 UNL     1      -0.727   2.963 -16.119  1.00  0.00     0.217 HD
ENDBRANCH   4  37
BRANCH   7  39
HETATM   39  C13 UNL     1       2.623   9.312 -12.011  1.00  0.00     0.179 C 
HETATM   40  O8  UNL     1       3.427   9.508 -11.121  1.00  0.00    -0.646 OA
BRANCH  39  41
HETATM   41  O9  UNL     1       1.893  10.333 -12.510  1.00  0.00    -0.773 OA
HETATM   42  H15 UNL     1       2.483  10.705 -13.206  1.00  0.00     0.167 HD
ENDBRANCH  39  41
ENDBRANCH   7  39
BRANCH   6  43
HETATM   43  O7  UNL     1       2.393   9.013 -14.898  1.00  0.00    -0.360 OA
HETATM   44  H14 UNL     1       2.147   8.746 -15.809  1.00  0.00     0.217 HD
ENDBRANCH   6  43
TORSDOF 12
ENDMDL
MODEL 2
REMARK VINA RESULT:      -8.0      1.387      2.554
REMARK  12 active torsions:
REMARK  status: ('A' for Active; 'I' for Inactive)
REMARK    1  A    between atoms: C1_2  and  C2_3 
REMARK    2  A    between atoms: C1_2  and  O12_34 
REMARK    3  A    between atoms: O2_4  and  C3_5 
REMARK    4  A    between atoms: O3_6  and  C4_7 
REMARK    5  A    between atoms: C5_8  and  O13_35 
REMARK    6  A    between atoms: C6_9  and  C8_12 
REMARK    7  A    between atoms: O4_10  and  C7_11 
REMARK    8  A    between atoms: O5_13  and  C9_14 
REMARK    9  A    between atoms: O6_15  and  C10_16 
REMARK   10  A    between atoms: O7_18  and  C12_19 
REMARK   11  A    between atoms: O9_21  and  C13_22 
REMARK   12  A    between atoms: C13_22  and  C14_23 
ROOT
HETATM    1  C7  UNL     1       0.505   3.610 -10.494  1.00  0.00     0.092 A 
HETATM    2  C8  UNL     1       0.013   2.388 -10.984  1.00  0.00     0.043 A 
HETATM    3  C9  UNL     1       0.008   2.227 -12.372  1.00  0.00     0.111 A 
HETATM    4  C10 UNL     1       0.490   3.224 -13.232  1.00  0.00     0.115 A 
HETATM    5  C11 UNL     1       2.346   7.792 -13.923  1.00  0.00     0.054 A 
HETATM    6  C12 UNL     1       2.725   9.035 -13.436  1.00  0.00     0.084 A 
HETATM    7  C14 UNL     1       2.769   9.286 -12.055  1.00  0.00     0.077 A 
HETATM    8  C15 UNL     1       2.653   8.443  -9.658  1.00  0.00     0.050 C 
HETATM    9  C16 UNL     1       2.474   8.234 -11.143  1.00  0.00    -0.027 A 
HETATM   10  C17 UNL     1       2.014   6.985 -11.658  1.00  0.00     0.036 A 
HETATM   11  C18 UNL     1       1.973   6.772 -13.040  1.00  0.00     0.032 A 
HETATM   12  O10 UNL     1       1.706   5.308 -14.821  1.00  0.00    -0.286 OA
HETATM   13  C19 UNL     1       1.559   5.474 -13.615  1.00  0.00     0.197 C 
HETATM   14  C20 UNL     1       1.013   4.421 -12.731  1.00  0.00     0.068 A 
HETATM   15  C21 UNL     1       1.013   4.619 -11.351  1.00  0.00     0.066 A 
HETATM   16  C22 UNL     1       1.535   5.881 -10.782  1.00  0.00     0.197 C 
HETATM   17  O11 UNL     1       1.525   5.985  -9.558  1.00  0.00    -0.286 OA
ENDROOT
BRANCH   2  18
HETATM   18  C6  UNL     1      -0.509   1.330 -10.016  1.00  0.00     0.192 C 
HETATM   19  O1  UNL     1      -0.199   0.020 -10.522  1.00  0.00    -0.368 OA
HETATM   20  C2  UNL     1      -0.456  -1.022  -9.551  1.00  0.00     0.177 C 
HETATM   21  C3  UNL     1      -1.754  -0.781  -8.740  1.00  0.00     0.180 C 
HETATM   22  C4  UNL     1      -2.715   0.127  -9.525  1.00  0.00     0.181 C 
HETATM   23  C5  UNL     1      -2.040   1.488  -9.788  1.00  0.00     0.183 C 
BRANCH  20  24
HETATM   24  C1  UNL     1      -0.489  -2.346 -10.333  1.00  0.00     0.198 C 
BRANCH  24  25
HETATM   25  O12 UNL     1       0.265  -2.265 -11.534  1.00  0.00    -0.398 OA
HETATM   26  H19 UNL     1       0.272  -1.329 -11.803  1.00  0.00     0.209 HD
ENDBRANCH  24  25
ENDBRANCH  20  24
BRANCH  21  27
HETATM   27  O2  UNL     1      -1.400  -0.166  -7.486  1.00  0.00    -0.390 OA
HETATM   28  H4  UNL     1      -1.505  -0.826  -6.770  1.00  0.00     0.210 HD
ENDBRANCH  21  27
BRANCH  22  29
HETATM   29  O3  UNL     1      -3.120  -0.485 -10.753  1.00  0.00    -0.390 OA
HETATM   30  H6  UNL     1      -3.047   0.192 -11.451  1.00  0.00     0.210 HD
ENDBRANCH  22  29
BRANCH  23  31
HETATM   31  O13 UNL     1      -2.286   2.324  -8.639  1.00  0.00    -0.390 OA
HETATM   32  H20 UNL     1      -1.521   2.204  -8.035  1.00  0.00     0.210 HD
ENDBRANCH  23  31
ENDBRANCH   2  18
BRANCH   1  33
HETATM   33  O4  UNL     1       0.439   3.789  -9.129  1.00  0.00    -0.359 OA
HETATM   34  H10 UNL     1       1.177   3.279  -8.715  1.00  0.00     0.217 HD
ENDBRANCH   1  33
BRANCH   3  35
HETATM   35  O5  UNL     1      -0.467   1.094 -12.987  1.00  0.00    -0.357 OA
HETATM   36  H11 UNL     1      -1.245   0.795 -12.467  1.00  0.00     0.217 HD
ENDBRANCH   3  35
BRANCH   4  37
HETATM   37  O6  UNL     1       0.416   2.966 -14.575  1.00  0.00    -0.357 OA
HETATM   38  H12 UNL     1      -0.476   2.592 -14.726  1.00  0.00     0.217 HD
ENDBRANCH   4  37
BRANCH   7  39
HETATM   39  C13 UNL     1       3.041  10.671 -11.566  1.00  0.00     0.179 C 
HETATM   40  O8  UNL     1       2.314  11.640 -11.657  1.00  0.00    -0.646 OA
BRANCH  39  41
HETATM   41  O9  UNL     1       4.253  10.776 -10.978  1.00  0.00    -0.773 OA
HETATM   42  H15 UNL     1       4.025  10.921 -10.031  1.00  0.00     0.167 HD
ENDBRANCH  39  41
ENDBRANCH   7  39
BRANCH   6  43
HETATM   43  O7  UNL     1       3.037   9.964 -14.391  1.00  0.00    -0.360 OA
HETATM   44  H14 UNL     1       2.899  10.856 -14.005  1.00  0.00     0.217 HD
ENDBRANCH   6  43
TORSDOF 12
ENDMDL
