MODEL 1
REMARK VINA RESULT:      -8.0      0.000      0.000
REMARK  6 active torsions:
REMARK  status: ('A' for Active; 'I' for Inactive)
REMARK    1  A    between atoms: C3_3  and  O2_22 
REMARK    2  A    between atoms: C6_6  and  C7_7 
REMARK    3  A    between atoms: C7_7  and  C8_8 
REMARK    4  A    between atoms: N1_11  and  C17_20 
REMARK    5  A    between atoms: C17_20  and  C18_21 
REMARK    6  A    between atoms: C18_21  and  N2_24 
ROOT
HETATM    1  C8  UNL     1      -0.077   3.135 -10.901  1.00  0.00     0.050 A 
HETATM    2  C9  UNL     1       0.829   4.080 -10.428  1.00  0.00     0.023 A 
HETATM    3  N1  UNL     1       1.483   4.618 -11.515  1.00  0.00    -0.347 N 
HETATM    4  C10 UNL     1       1.033   4.034 -12.685  1.00  0.00     0.047 A 
HETATM    5  C11 UNL     1       0.039   3.118 -12.332  1.00  0.00     0.007 A 
HETATM    6  C12 UNL     1       1.411   4.248 -14.024  1.00  0.00     0.049 A 
HETATM    7  C13 UNL     1       0.747   3.522 -15.016  1.00  0.00     0.013 A 
HETATM    8  C14 UNL     1      -0.262   2.621 -14.700  1.00  0.00     0.020 A 
HETATM    9  C15 UNL     1      -0.626   2.417 -13.365  1.00  0.00     0.016 A 
HETATM   10 BR1  UNL     1       1.227   3.785 -16.828  1.00  0.00    -0.051 Br
HETATM   11  C16 UNL     1       1.102   4.501  -9.021  1.00  0.00     0.069 C 
ENDROOT
BRANCH   1  12
HETATM   12  C7  UNL     1      -0.983   2.362 -10.052  1.00  0.00     0.195 C 
HETATM   13  O1  UNL     1      -1.953   2.874  -9.498  1.00  0.00    -0.287 OA
BRANCH  12  14
HETATM   14  C6  UNL     1      -0.724   0.912  -9.835  1.00  0.00     0.015 A 
HETATM   15  C2  UNL     1      -1.666   0.164  -9.118  1.00  0.00     0.018 A 
HETATM   16  C1  UNL     1      -1.456  -1.200  -8.881  1.00  0.00     0.037 A 
HETATM   17  C3  UNL     1      -0.299  -1.822  -9.349  1.00  0.00     0.068 A 
HETATM   18  C4  UNL     1       0.649  -1.068 -10.047  1.00  0.00     0.037 A 
HETATM   19  C5  UNL     1       0.447   0.294 -10.285  1.00  0.00     0.018 A 
BRANCH  17  20
HETATM   20  O2  UNL     1       0.026  -3.140  -9.189  1.00  0.00    -0.356 OA
HETATM   21  C19 UNL     1      -1.037  -4.081  -9.288  1.00  0.00     0.210 C 
ENDBRANCH  17  20
ENDBRANCH  12  14
ENDBRANCH   1  12
BRANCH   3  22
HETATM   22  C17 UNL     1       2.485   5.681 -11.464  1.00  0.00     0.159 C 
BRANCH  22  23
HETATM   23  C18 UNL     1       1.872   7.054 -11.783  1.00  0.00     0.292 C 
BRANCH  23  24
HETATM   24  N2  UNL     1       2.641   7.936 -12.672  1.00  0.00     0.094 N 
HETATM   25  C20 UNL     1       3.024   9.230 -12.082  1.00  0.00     0.298 C 
HETATM   26  C21 UNL     1       2.286  10.427 -12.704  1.00  0.00     0.198 C 
HETATM   27  O3  UNL     1       2.454  10.530 -14.124  1.00  0.00    -0.388 OA
HETATM   28  C22 UNL     1       2.695   9.268 -14.762  1.00  0.00     0.198 C 
HETATM   29  C23 UNL     1       2.052   8.092 -14.012  1.00  0.00     0.298 C 
ENDBRANCH  23  24
ENDBRANCH  22  23
ENDBRANCH   3  22
TORSDOF 6
ENDMDL
MODEL 2
REMARK VINA RESULT:      -7.3      2.108      3.090
REMARK  6 active torsions:
REMARK  status: ('A' for Active; 'I' for Inactive)
REMARK    1  A    between atoms: C3_3  and  O2_22 
REMARK    2  A    between atoms: C6_6  and  C7_7 
REMARK    3  A    between atoms: C7_7  and  C8_8 
REMARK    4  A    between atoms: N1_11  and  C17_20 
REMARK    5  A    between atoms: C17_20  and  C18_21 
REMARK    6  A    between atoms: C18_21  and  N2_24 
ROOT
HETATM    1  C8  UNL     1       0.721   2.109  -9.779  1.00  0.00     0.050 A 
HETATM    2  C9  UNL     1       1.512   3.233  -9.564  1.00  0.00     0.023 A 
HETATM    3  N1  UNL     1       1.608   3.915 -10.758  1.00  0.00    -0.347 N 
HETATM    4  C10 UNL     1       0.910   3.252 -11.749  1.00  0.00     0.047 A 
HETATM    5  C11 UNL     1       0.324   2.129 -11.159  1.00  0.00     0.007 A 
HETATM    6  C12 UNL     1       0.735   3.556 -13.112  1.00  0.00     0.049 A 
HETATM    7  C13 UNL     1      -0.065   2.705 -13.877  1.00  0.00     0.013 A 
HETATM    8  C14 UNL     1      -0.681   1.594 -13.315  1.00  0.00     0.020 A 
HETATM    9  C15 UNL     1      -0.497   1.301 -11.959  1.00  0.00     0.016 A 
HETATM   10 BR1  UNL     1      -0.325   3.084 -15.713  1.00  0.00    -0.051 Br
HETATM   11  C16 UNL     1       2.168   3.696  -8.304  1.00  0.00     0.069 C 
ENDROOT
BRANCH   1  12
HETATM   12  C7  UNL     1       0.360   1.142  -8.743  1.00  0.00     0.195 C 
HETATM   13  O1  UNL     1       1.137   0.266  -8.368  1.00  0.00    -0.287 OA
BRANCH  12  14
HETATM   14  C6  UNL     1      -0.993   1.203  -8.125  1.00  0.00     0.015 A 
HETATM   15  C2  UNL     1      -1.718   0.014  -7.982  1.00  0.00     0.018 A 
HETATM   16  C1  UNL     1      -2.999   0.027  -7.417  1.00  0.00     0.037 A 
HETATM   17  C3  UNL     1      -3.568   1.231  -7.000  1.00  0.00     0.068 A 
HETATM   18  C4  UNL     1      -2.849   2.419  -7.162  1.00  0.00     0.037 A 
HETATM   19  C5  UNL     1      -1.572   2.412  -7.727  1.00  0.00     0.018 A 
BRANCH  17  20
HETATM   20  O2  UNL     1      -4.802   1.383  -6.433  1.00  0.00    -0.356 OA
HETATM   21  C19 UNL     1      -5.828   0.506  -6.882  1.00  0.00     0.210 C 
ENDBRANCH  17  20
ENDBRANCH  12  14
ENDBRANCH   1  12
BRANCH   3  22
HETATM   22  C17 UNL     1       2.313   5.180 -10.959  1.00  0.00     0.159 C 
BRANCH  22  23
HETATM   23  C18 UNL     1       1.384   6.386 -10.753  1.00  0.00     0.292 C 
BRANCH  23  24
HETATM   24  N2  UNL     1       1.476   7.474 -11.736  1.00  0.00     0.094 N 
HETATM   25  C20 UNL     1       0.843   7.190 -13.036  1.00  0.00     0.298 C 
HETATM   26  C21 UNL     1       1.854   7.024 -14.184  1.00  0.00     0.198 C 
HETATM   27  O3  UNL     1       2.715   8.156 -14.357  1.00  0.00    -0.388 OA
HETATM   28  C22 UNL     1       2.931   8.899 -13.149  1.00  0.00     0.198 C 
HETATM   29  C23 UNL     1       2.832   8.025 -11.890  1.00  0.00     0.298 C 
ENDBRANCH  23  24
ENDBRANCH  22  23
ENDBRANCH   3  22
TORSDOF 6
ENDMDL
