MODEL 1
REMARK VINA RESULT:      -6.6      0.000      0.000
REMARK  14 active torsions:
REMARK  status: ('A' for Active; 'I' for Inactive)
REMARK    1  A    between atoms: C2_2  and  C7_7 
REMARK    2  A    between atoms: C3_3  and  O2_10 
REMARK    3  A    between atoms: C4_4  and  C9_11 
REMARK    4  A    between atoms: C5_5  and  O3_14 
REMARK    5  A    between atoms: C9_11  and  C10_12 
REMARK    6  A    between atoms: O3_14  and  C12_15 
REMARK    7  A    between atoms: C12_15  and  C13_16 
REMARK    8  A    between atoms: C13_16  and  C14_17 
REMARK    9  A    between atoms: C14_17  and  O4_18 
REMARK   10  A    between atoms: O4_18  and  C15_19 
REMARK   11  A    between atoms: C18_22  and  O5_25 
REMARK   12  A    between atoms: O5_25  and  C21_26 
REMARK   13  A    between atoms: C21_26  and  C22_27 
REMARK   14  A    between atoms: C22_27  and  O6_28 
ROOT
HETATM    1  C12 UNL     1       2.274   3.942 -15.255  1.00  0.00     0.178 C 
ENDROOT
BRANCH   1   2
HETATM    2  O3  UNL     1       2.053   5.173 -14.560  1.00  0.00    -0.350 OA
BRANCH   2   3
HETATM    3  C5  UNL     1       1.653   5.026 -13.257  1.00  0.00     0.077 A 
HETATM    4  C4  UNL     1       0.884   6.069 -12.699  1.00  0.00     0.009 A 
HETATM    5  C3  UNL     1       0.468   5.950 -11.360  1.00  0.00     0.088 A 
HETATM    6  C2  UNL     1       0.809   4.825 -10.597  1.00  0.00     0.043 A 
HETATM    7  C1  UNL     1       1.523   3.776 -11.192  1.00  0.00     0.021 A 
HETATM    8  C6  UNL     1       1.943   3.877 -12.519  1.00  0.00     0.038 A 
BRANCH   4   9
HETATM    9  C9  UNL     1       0.611   7.316 -13.517  1.00  0.00     0.044 C 
BRANCH   9  10
HETATM   10  C10 UNL     1       1.647   8.411 -13.236  1.00  0.00     0.000 C 
HETATM   11  C11 UNL     1       2.409   8.786 -14.494  1.00  0.00     0.005 C 
ENDBRANCH   9  10
ENDBRANCH   4   9
BRANCH   5  12
HETATM   12  O2  UNL     1      -0.298   6.931 -10.792  1.00  0.00    -0.359 OA
HETATM   13  H6  UNL     1      -0.101   7.767 -11.264  1.00  0.00     0.217 HD
ENDBRANCH   5  12
BRANCH   6  14
HETATM   14  C7  UNL     1       0.415   4.658  -9.173  1.00  0.00     0.158 C 
HETATM   15  C8  UNL     1      -0.316   3.412  -8.748  1.00  0.00     0.097 C 
HETATM   16  O1  UNL     1       0.676   5.556  -8.370  1.00  0.00    -0.293 OA
ENDBRANCH   6  14
ENDBRANCH   2   3
ENDBRANCH   1   2
BRANCH   1  17
HETATM   17  C13 UNL     1       1.276   3.881 -16.403  1.00  0.00     0.053 C 
BRANCH  17  18
HETATM   18  C14 UNL     1       0.205   2.825 -16.171  1.00  0.00     0.178 C 
BRANCH  18  19
HETATM   19  O4  UNL     1      -0.668   3.317 -15.157  1.00  0.00    -0.351 OA
BRANCH  19  20
HETATM   20  C15 UNL     1      -0.936   2.480 -14.109  1.00  0.00     0.068 A 
HETATM   21  C16 UNL     1      -1.507   2.845 -12.894  1.00  0.00     0.039 A 
HETATM   22  C17 UNL     1      -1.716   1.877 -11.903  1.00  0.00     0.039 A 
HETATM   23  C18 UNL     1      -1.362   0.542 -12.115  1.00  0.00     0.069 A 
HETATM   24  C19 UNL     1      -0.806   0.176 -13.339  1.00  0.00     0.039 A 
HETATM   25  C20 UNL     1      -0.600   1.142 -14.329  1.00  0.00     0.039 A 
BRANCH  23  26
HETATM   26  O5  UNL     1      -1.617  -0.287 -11.058  1.00  0.00    -0.341 OA
BRANCH  26  27
HETATM   27  C21 UNL     1      -0.819  -0.149  -9.892  1.00  0.00     0.285 C 
BRANCH  27  28
HETATM   28  C22 UNL     1       0.627  -0.581 -10.053  1.00  0.00     0.164 C 
HETATM   29  O7  UNL     1       1.022  -1.522 -10.724  1.00  0.00    -0.648 OA
BRANCH  28  30
HETATM   30  O6  UNL     1       1.500   0.202  -9.391  1.00  0.00    -0.775 OA
HETATM   31  H26 UNL     1       2.258   0.295 -10.003  1.00  0.00     0.167 HD
ENDBRANCH  28  30
ENDBRANCH  27  28
ENDBRANCH  26  27
ENDBRANCH  23  26
ENDBRANCH  19  20
ENDBRANCH  18  19
ENDBRANCH  17  18
ENDBRANCH   1  17
TORSDOF 14
ENDMDL
MODEL 2
REMARK VINA RESULT:      -6.6      1.673      2.008
REMARK  14 active torsions:
REMARK  status: ('A' for Active; 'I' for Inactive)
REMARK    1  A    between atoms: C2_2  and  C7_7 
REMARK    2  A    between atoms: C3_3  and  O2_10 
REMARK    3  A    between atoms: C4_4  and  C9_11 
REMARK    4  A    between atoms: C5_5  and  O3_14 
REMARK    5  A    between atoms: C9_11  and  C10_12 
REMARK    6  A    between atoms: O3_14  and  C12_15 
REMARK    7  A    between atoms: C12_15  and  C13_16 
REMARK    8  A    between atoms: C13_16  and  C14_17 
REMARK    9  A    between atoms: C14_17  and  O4_18 
REMARK   10  A    between atoms: O4_18  and  C15_19 
REMARK   11  A    between atoms: C18_22  and  O5_25 
REMARK   12  A    between atoms: O5_25  and  C21_26 
REMARK   13  A    between atoms: C21_26  and  C22_27 
REMARK   14  A    between atoms: C22_27  and  O6_28 
ROOT
HETATM    1  C12 UNL     1       1.132   5.363 -14.968  1.00  0.00     0.178 C 
ENDROOT
BRANCH   1   2
HETATM    2  O3  UNL     1       2.258   6.069 -14.439  1.00  0.00    -0.350 OA
BRANCH   2   3
HETATM    3  C5  UNL     1       2.199   6.302 -13.089  1.00  0.00     0.077 A 
HETATM    4  C4  UNL     1       2.613   7.573 -12.637  1.00  0.00     0.009 A 
HETATM    5  C3  UNL     1       2.572   7.837 -11.255  1.00  0.00     0.088 A 
HETATM    6  C2  UNL     1       2.132   6.863 -10.348  1.00  0.00     0.043 A 
HETATM    7  C1  UNL     1       1.671   5.629 -10.828  1.00  0.00     0.021 A 
HETATM    8  C6  UNL     1       1.704   5.351 -12.194  1.00  0.00     0.038 A 
BRANCH   4   9
HETATM    9  C9  UNL     1       3.172   8.573 -13.630  1.00  0.00     0.044 C 
BRANCH   9  10
HETATM   10  C10 UNL     1       2.063   9.435 -14.245  1.00  0.00     0.000 C 
HETATM   11  C11 UNL     1       2.080  10.843 -13.679  1.00  0.00     0.005 C 
ENDBRANCH   9  10
ENDBRANCH   4   9
BRANCH   5  12
HETATM   12  O2  UNL     1       2.944   9.065 -10.782  1.00  0.00    -0.359 OA
HETATM   13  H6  UNL     1       2.171   9.661 -10.872  1.00  0.00     0.217 HD
ENDBRANCH   5  12
BRANCH   6  14
HETATM   14  C7  UNL     1       2.090   7.081  -8.878  1.00  0.00     0.158 C 
HETATM   15  C8  UNL     1       2.414   5.939  -7.951  1.00  0.00     0.097 C 
HETATM   16  O1  UNL     1       1.767   8.189  -8.445  1.00  0.00    -0.293 OA
ENDBRANCH   6  14
ENDBRANCH   2   3
ENDBRANCH   1   2
BRANCH   1  17
HETATM   17  C13 UNL     1       1.669   4.179 -15.762  1.00  0.00     0.053 C 
BRANCH  17  18
HETATM   18  C14 UNL     1       0.657   3.046 -15.850  1.00  0.00     0.178 C 
BRANCH  18  19
HETATM   19  O4  UNL     1      -0.467   3.414 -15.054  1.00  0.00    -0.351 OA
BRANCH  19  20
HETATM   20  C15 UNL     1      -0.786   2.588 -14.012  1.00  0.00     0.068 A 
HETATM   21  C16 UNL     1      -1.289   2.984 -12.776  1.00  0.00     0.039 A 
HETATM   22  C17 UNL     1      -1.562   2.023 -11.795  1.00  0.00     0.039 A 
HETATM   23  C18 UNL     1      -1.343   0.665 -12.035  1.00  0.00     0.069 A 
HETATM   24  C19 UNL     1      -0.855   0.269 -13.279  1.00  0.00     0.039 A 
HETATM   25  C20 UNL     1      -0.584   1.228 -14.260  1.00  0.00     0.039 A 
BRANCH  23  26
HETATM   26  O5  UNL     1      -1.647  -0.154 -10.984  1.00  0.00    -0.341 OA
BRANCH  26  27
HETATM   27  C21 UNL     1      -1.560  -1.557 -11.181  1.00  0.00     0.285 C 
BRANCH  27  28
HETATM   28  C22 UNL     1      -0.284  -2.196 -10.664  1.00  0.00     0.164 C 
HETATM   29  O7  UNL     1      -0.162  -2.801  -9.611  1.00  0.00    -0.648 OA
BRANCH  28  30
HETATM   30  O6  UNL     1       0.761  -2.068 -11.506  1.00  0.00    -0.775 OA
HETATM   31  H26 UNL     1       0.624  -1.198 -11.934  1.00  0.00     0.167 HD
ENDBRANCH  28  30
ENDBRANCH  27  28
ENDBRANCH  26  27
ENDBRANCH  23  26
ENDBRANCH  19  20
ENDBRANCH  18  19
ENDBRANCH  17  18
ENDBRANCH   1  17
TORSDOF 14
ENDMDL
