MODEL 1
REMARK VINA RESULT:      -6.7      0.000      0.000
REMARK  16 active torsions:
REMARK  status: ('A' for Active; 'I' for Inactive)
REMARK    1  A    between atoms: C1_1  and  C2_2 
REMARK    2  A    between atoms: C1_1  and  C20_23 
REMARK    3  A    between atoms: C2_2  and  C3_3 
REMARK    4  A    between atoms: C3_3  and  C4_4 
REMARK    5  A    between atoms: C5_5  and  C6_6 
REMARK    6  A    between atoms: C6_6  and  C7_7 
REMARK    7  A    between atoms: C8_8  and  O1_13 
REMARK    8  A    between atoms: C10_10  and  O2_14 
REMARK    9  A    between atoms: C11_11  and  C12_12 
REMARK   10  A    between atoms: C13_15  and  C14_16 
REMARK   11  A    between atoms: C14_16  and  C15_17 
REMARK   12  A    between atoms: C14_16  and  O3_18 
REMARK   13  A    between atoms: C15_17  and  C16_19 
REMARK   14  A    between atoms: C16_19  and  C17_20 
REMARK   15  A    between atoms: C17_20  and  C18_21 
REMARK   16  A    between atoms: C20_23  and  O5_25 
ROOT
HETATM    1  C7  UNL     1       1.754   5.657 -14.066  1.00  0.00     0.028 C 
HETATM    2  C8  UNL     1       2.042   7.163 -14.155  1.00  0.00     0.125 C 
HETATM    3  C9  UNL     1       1.091   7.823 -13.150  1.00  0.00     0.064 C 
HETATM    4  C10 UNL     1       0.688   6.715 -12.168  1.00  0.00     0.128 C 
HETATM    5  C11 UNL     1       1.551   5.487 -12.539  1.00  0.00     0.043 C 
ENDROOT
BRANCH   1   6
HETATM    6  C6  UNL     1       0.527   5.246 -14.910  1.00  0.00     0.034 C 
BRANCH   6   7
HETATM    7  C5  UNL     1       0.911   4.499 -16.160  1.00  0.00    -0.030 C 
HETATM    8  C4  UNL     1       1.118   3.178 -16.298  1.00  0.00    -0.031 C 
BRANCH   8   9
HETATM    9  C3  UNL     1       1.027   2.116 -15.238  1.00  0.00     0.027 C 
BRANCH   9  10
HETATM   10  C2  UNL     1      -0.370   1.497 -15.200  1.00  0.00     0.014 C 
BRANCH  10  11
HETATM   11  C1  UNL     1      -0.807   1.215 -13.769  1.00  0.00     0.110 C 
BRANCH  11  12
HETATM   12  C20 UNL     1      -0.626  -0.234 -13.413  1.00  0.00     0.139 C 
HETATM   13  O4  UNL     1      -0.174  -0.667 -12.366  1.00  0.00    -0.650 OA
BRANCH  12  14
HETATM   14  O5  UNL     1      -1.049  -1.071 -14.380  1.00  0.00    -0.776 OA
HETATM   15  H34 UNL     1      -1.975  -0.796 -14.542  1.00  0.00     0.167 HD
ENDBRANCH  12  14
ENDBRANCH  11  12
ENDBRANCH  10  11
ENDBRANCH   9  10
ENDBRANCH   8   9
ENDBRANCH   6   7
ENDBRANCH   1   6
BRANCH   2  16
HETATM   16  O1  UNL     1       3.394   7.390 -13.749  1.00  0.00    -0.395 OA
HETATM   17  H27 UNL     1       3.375   7.714 -12.833  1.00  0.00     0.210 HD
ENDBRANCH   2  16
BRANCH   5  18
HETATM   18  C12 UNL     1       0.976   4.178 -12.044  1.00  0.00    -0.021 C 
HETATM   19  C13 UNL     1       1.054   3.746 -10.772  1.00  0.00     0.001 C 
BRANCH  19  20
HETATM   20  C14 UNL     1       0.507   2.453 -10.216  1.00  0.00     0.140 C 
BRANCH  20  21
HETATM   21  C15 UNL     1      -1.012   2.359 -10.431  1.00  0.00     0.036 C 
BRANCH  21  22
HETATM   22  C16 UNL     1      -1.838   3.349  -9.593  1.00  0.00     0.003 C 
BRANCH  22  23
HETATM   23  C17 UNL     1      -2.317   4.582 -10.361  1.00  0.00    -0.000 C 
BRANCH  23  24
HETATM   24  C18 UNL     1      -2.322   5.858  -9.512  1.00  0.00    -0.005 C 
HETATM   25  C19 UNL     1      -2.309   5.590  -8.016  1.00  0.00     0.005 C 
ENDBRANCH  23  24
ENDBRANCH  22  23
ENDBRANCH  21  22
ENDBRANCH  20  21
BRANCH  20  26
HETATM   26  O3  UNL     1       1.163   1.350 -10.829  1.00  0.00    -0.392 OA
HETATM   27  H33 UNL     1       1.684   1.707 -11.569  1.00  0.00     0.210 HD
ENDBRANCH  20  26
ENDBRANCH  19  20
ENDBRANCH   5  18
BRANCH   4  28
HETATM   28  O2  UNL     1       0.917   7.148 -10.833  1.00  0.00    -0.395 OA
HETATM   29  H28 UNL     1       0.057   7.379 -10.445  1.00  0.00     0.210 HD
ENDBRANCH   4  28
TORSDOF 16
ENDMDL
MODEL 2
REMARK VINA RESULT:      -6.5      1.704      7.306
REMARK  16 active torsions:
REMARK  status: ('A' for Active; 'I' for Inactive)
REMARK    1  A    between atoms: C1_1  and  C2_2 
REMARK    2  A    between atoms: C1_1  and  C20_23 
REMARK    3  A    between atoms: C2_2  and  C3_3 
REMARK    4  A    between atoms: C3_3  and  C4_4 
REMARK    5  A    between atoms: C5_5  and  C6_6 
REMARK    6  A    between atoms: C6_6  and  C7_7 
REMARK    7  A    between atoms: C8_8  and  O1_13 
REMARK    8  A    between atoms: C10_10  and  O2_14 
REMARK    9  A    between atoms: C11_11  and  C12_12 
REMARK   10  A    between atoms: C13_15  and  C14_16 
REMARK   11  A    between atoms: C14_16  and  C15_17 
REMARK   12  A    between atoms: C14_16  and  O3_18 
REMARK   13  A    between atoms: C15_17  and  C16_19 
REMARK   14  A    between atoms: C16_19  and  C17_20 
REMARK   15  A    between atoms: C17_20  and  C18_21 
REMARK   16  A    between atoms: C20_23  and  O5_25 
ROOT
HETATM    1  C7  UNL     1      -0.676   0.386 -10.610  1.00  0.00     0.028 C 
HETATM    2  C8  UNL     1      -1.047  -1.081 -10.877  1.00  0.00     0.125 C 
HETATM    3  C9  UNL     1      -1.616  -1.109 -12.299  1.00  0.00     0.064 C 
HETATM    4  C10 UNL     1      -1.087   0.158 -12.985  1.00  0.00     0.128 C 
HETATM    5  C11 UNL     1      -0.093   0.795 -11.988  1.00  0.00     0.043 C 
ENDROOT
BRANCH   1   6
HETATM    6  C6  UNL     1      -1.897   1.226 -10.173  1.00  0.00     0.034 C 
BRANCH   6   7
HETATM    7  C5  UNL     1      -1.550   2.236  -9.111  1.00  0.00    -0.030 C 
HETATM    8  C4  UNL     1      -1.653   3.575  -9.184  1.00  0.00    -0.031 C 
BRANCH   8   9
HETATM    9  C3  UNL     1      -2.132   4.400 -10.346  1.00  0.00     0.027 C 
BRANCH   9  10
HETATM   10  C2  UNL     1      -2.557   5.795  -9.890  1.00  0.00     0.014 C 
BRANCH  10  11
HETATM   11  C1  UNL     1      -2.186   6.033  -8.432  1.00  0.00     0.110 C 
BRANCH  11  12
HETATM   12  C20 UNL     1      -1.284   7.224  -8.280  1.00  0.00     0.139 C 
HETATM   13  O4  UNL     1      -1.516   8.223  -7.619  1.00  0.00    -0.650 OA
BRANCH  12  14
HETATM   14  O5  UNL     1      -0.119   7.091  -8.943  1.00  0.00    -0.776 OA
HETATM   15  H34 UNL     1       0.557   7.362  -8.288  1.00  0.00     0.167 HD
ENDBRANCH  12  14
ENDBRANCH  11  12
ENDBRANCH  10  11
ENDBRANCH   9  10
ENDBRANCH   8   9
ENDBRANCH   6   7
ENDBRANCH   1   6
BRANCH   2  16
HETATM   16  O1  UNL     1       0.147  -1.865 -10.827  1.00  0.00    -0.395 OA
HETATM   17  H27 UNL     1       0.880  -1.303 -11.128  1.00  0.00     0.210 HD
ENDBRANCH   2  16
BRANCH   5  18
HETATM   18  C12 UNL     1       0.152   2.266 -12.242  1.00  0.00    -0.021 C 
HETATM   19  C13 UNL     1       1.199   2.957 -11.754  1.00  0.00     0.001 C 
BRANCH  19  20
HETATM   20  C14 UNL     1       1.498   4.422 -11.967  1.00  0.00     0.140 C 
BRANCH  20  21
HETATM   21  C15 UNL     1       0.745   4.968 -13.190  1.00  0.00     0.036 C 
BRANCH  21  22
HETATM   22  C16 UNL     1       1.647   5.379 -14.365  1.00  0.00     0.003 C 
BRANCH  22  23
HETATM   23  C17 UNL     1       2.153   4.211 -15.214  1.00  0.00    -0.000 C 
BRANCH  23  24
HETATM   24  C18 UNL     1       1.127   3.723 -16.242  1.00  0.00    -0.005 C 
HETATM   25  C19 UNL     1       0.867   2.226 -16.175  1.00  0.00     0.005 C 
ENDBRANCH  23  24
ENDBRANCH  22  23
ENDBRANCH  21  22
ENDBRANCH  20  21
BRANCH  20  26
HETATM   26  O3  UNL     1       1.149   5.158 -10.801  1.00  0.00    -0.392 OA
HETATM   27  H33 UNL     1       1.934   5.167 -10.227  1.00  0.00     0.210 HD
ENDBRANCH  20  26
ENDBRANCH  19  20
ENDBRANCH   5  18
BRANCH   4  28
HETATM   28  O2  UNL     1      -0.466  -0.185 -14.217  1.00  0.00    -0.395 OA
HETATM   29  H28 UNL     1       0.470   0.068 -14.157  1.00  0.00     0.210 HD
ENDBRANCH   4  28
TORSDOF 16
ENDMDL
